/*---------------------------------------------------------------------------*\
| =========                 |                                                 |
| \\      /  F ield         | OpenFOAM: The Open Source CFD Toolbox           |
|  \\    /   O peration     | Version:  2412                                  |
|   \\  /    A nd           | Website:  www.openfoam.com                      |
|    \\/     M anipulation  |                                                 |
\*---------------------------------------------------------------------------*/
Build  : _8dbc61e11c-20241220 OPENFOAM=2412 version=v2412
Arch   : "LSB;label=32;scalar=64"
Exec   : decomposePar -constant
Date   : Jun 15 2025
Time   : 09:40:09
Host   : 920B-node98
PID    : 2093491
I/O    : uncollated
Case   : /home/p00925941/OpenFOAM/cases/occDrivAerStaticMesh/run/110M/4096-hierarchical-32x16x8/case
nProcs : 1
trapFpe: Floating point exception trapping enabled (FOAM_SIGFPE).
fileModificationChecking : Monitoring run-time modified files using timeStampMaster (fileModificationSkew 5, maxFileModificationPolls 20)
allowSystemOperations : Allowing user-supplied system call operations

// * * * * * * * * * * * * * * * * * * * * * * * * * * * * * * * * * * * * * //
Create time



Decomposing mesh

Create mesh

Calculating distribution of cells
Decomposition method hierarchical [4096] (region region0)

Finished decomposition in 105.12 s

Calculating original mesh data

Distributing cells to processors

Distributing faces to processors

Distributing points to processors

Constructing processor meshes

Processor 0
    Number of cells = 29516
    Number of points = 51459
    Number of faces shared with processor 1024 = 761
    Number of faces shared with processor 512 = 21159
    Number of faces shared with processor 1 = 137
    Number of faces shared with processor 32 = 329
    Number of processor patches = 4
    Number of processor faces = 22386
    Number of boundary faces = 20912

Processor 1
    Number of cells = 29516
    Number of points = 36740
    Number of faces shared with processor 1536 = 124
    Number of faces shared with processor 0 = 137
    Number of faces shared with processor 512 = 188
    Number of faces shared with processor 1024 = 192
    Number of faces shared with processor 513 = 5649
    Number of faces shared with processor 2 = 976
    Number of faces shared with processor 32 = 82
    Number of faces shared with processor 544 = 93
    Number of faces shared with processor 33 = 291
    Number of faces shared with processor 34 = 18
    Number of processor patches = 10
    Number of processor faces = 7750
    Number of boundary faces = 5674

Processor 2
    Number of cells = 29516
    Number of points = 35226
    Number of faces shared with processor 1 = 976
    Number of faces shared with processor 513 = 541
    Number of faces shared with processor 514 = 2021
    Number of faces shared with processor 3 = 1635
    Number of faces shared with processor 34 = 596
    Number of processor patches = 5
    Number of processor faces = 5769
    Number of boundary faces = 3308

Processor 3
    Number of cells = 29516
    Number of points = 36013
    Number of faces shared with processor 2 = 1635
    Number of faces shared with processor 514 = 268
    Number of faces shared with processor 1027 = 5
    Number of faces shared with processor 515 = 1671
    Number of faces shared with processor 4 = 2115
    Number of faces shared with processor 5 = 5
    Number of faces shared with processor 34 = 125
    Number of faces shared with processor 35 = 676
    Number of processor patches = 8
    Number of processor faces = 6500
    Number of boundary faces = 3045

Processor 4
    Number of cells = 29516
    Number of points = 36088
    Number of faces shared with processor 3 = 2115
    Number of faces shared with processor 515 = 34
    Number of faces shared with processor 516 = 1848
    Number of faces shared with processor 5 = 2034
    Number of faces shared with processor 517 = 31
    Number of faces shared with processor 35 = 26
    Number of faces shared with processor 36 = 140
    Number of faces shared with processor 548 = 257
    Number of faces shared with processor 37 = 35
    Number of processor patches = 9
    Number of processor faces = 6520
    Number of boundary faces = 3334

Processor 5
    Number of cells = 29516
    Number of points = 35864
    Number of faces shared with processor 3 = 5
    Number of faces shared with processor 516 = 1
    Number of faces shared with processor 4 = 2034
    Number of faces shared with processor 1029 = 5
    Number of faces shared with processor 517 = 1674
    Number of faces shared with processor 6 = 1540
    Number of faces shared with processor 518 = 145
    Number of faces shared with processor 37 = 672
    Number of faces shared with processor 38 = 189
    Number of processor patches = 9
    Number of processor faces = 6265
    Number of boundary faces = 3011

Processor 6
    Number of cells = 29516
    Number of points = 35158
    Number of faces shared with processor 517 = 1
    Number of faces shared with processor 5 = 1540
    Number of faces shared with processor 1030 = 4
    Number of faces shared with processor 518 = 1992
    Number of faces shared with processor 7 = 1234
    Number of faces shared with processor 519 = 322
    Number of faces shared with processor 38 = 576
    Number of faces shared with processor 39 = 34
    Number of processor patches = 8
    Number of processor faces = 5703
    Number of boundary faces = 3226

Processor 7
    Number of cells = 29516
    Number of points = 35542
    Number of faces shared with processor 6 = 1234
    Number of faces shared with processor 519 = 3944
    Number of faces shared with processor 520 = 3
    Number of faces shared with processor 8 = 1200
    Number of faces shared with processor 39 = 533
    Number of processor patches = 5
    Number of processor faces = 6914
    Number of boundary faces = 4015

Processor 8
    Number of cells = 29516
    Number of points = 35546
    Number of faces shared with processor 7 = 1200
    Number of faces shared with processor 519 = 149
    Number of faces shared with processor 520 = 3269
    Number of faces shared with processor 9 = 1100
    Number of faces shared with processor 40 = 560
    Number of faces shared with processor 41 = 206
    Number of processor patches = 6
    Number of processor faces = 6484
    Number of boundary faces = 3889

Processor 9
    Number of cells = 29516
    Number of points = 35400
    Number of faces shared with processor 8 = 1100
    Number of faces shared with processor 520 = 169
    Number of faces shared with processor 521 = 2081
    Number of faces shared with processor 10 = 1313
    Number of faces shared with processor 41 = 555
    Number of faces shared with processor 42 = 105
    Number of processor patches = 6
    Number of processor faces = 5323
    Number of boundary faces = 3610

Processor 10
    Number of cells = 29516
    Number of points = 35041
    Number of faces shared with processor 9 = 1313
    Number of faces shared with processor 521 = 138
    Number of faces shared with processor 522 = 1909
    Number of faces shared with processor 1034 = 4
    Number of faces shared with processor 11 = 1365
    Number of faces shared with processor 523 = 125
    Number of faces shared with processor 42 = 595
    Number of faces shared with processor 43 = 34
    Number of processor patches = 8
    Number of processor faces = 5483
    Number of boundary faces = 3220

Processor 11
    Number of cells = 29516
    Number of points = 35347
    Number of faces shared with processor 10 = 1365
    Number of faces shared with processor 523 = 2102
    Number of faces shared with processor 524 = 1
    Number of faces shared with processor 12 = 1348
    Number of faces shared with processor 43 = 579
    Number of faces shared with processor 44 = 14
    Number of processor patches = 6
    Number of processor faces = 5409
    Number of boundary faces = 3651

Processor 12
    Number of cells = 29516
    Number of points = 35459
    Number of faces shared with processor 11 = 1348
    Number of faces shared with processor 524 = 2158
    Number of faces shared with processor 13 = 1267
    Number of faces shared with processor 525 = 57
    Number of faces shared with processor 44 = 588
    Number of faces shared with processor 45 = 14
    Number of processor patches = 6
    Number of processor faces = 5432
    Number of boundary faces = 3701

Processor 13
    Number of cells = 29516
    Number of points = 35538
    Number of faces shared with processor 12 = 1267
    Number of faces shared with processor 525 = 3123
    Number of faces shared with processor 14 = 1178
    Number of faces shared with processor 45 = 598
    Number of processor patches = 4
    Number of processor faces = 6166
    Number of boundary faces = 3916

Processor 14
    Number of cells = 29516
    Number of points = 35182
    Number of faces shared with processor 13 = 1178
    Number of faces shared with processor 525 = 162
    Number of faces shared with processor 526 = 2047
    Number of faces shared with processor 527 = 12
    Number of faces shared with processor 15 = 1258
    Number of faces shared with processor 45 = 60
    Number of faces shared with processor 46 = 555
    Number of faces shared with processor 47 = 45
    Number of processor patches = 8
    Number of processor faces = 5317
    Number of boundary faces = 3540

Processor 15
    Number of cells = 29516
    Number of points = 35264
    Number of faces shared with processor 526 = 1
    Number of faces shared with processor 14 = 1258
    Number of faces shared with processor 527 = 2091
    Number of faces shared with processor 528 = 63
    Number of faces shared with processor 16 = 1162
    Number of faces shared with processor 47 = 605
    Number of faces shared with processor 48 = 24
    Number of processor patches = 7
    Number of processor faces = 5204
    Number of boundary faces = 3680

Processor 16
    Number of cells = 29516
    Number of points = 35500
    Number of faces shared with processor 15 = 1162
    Number of faces shared with processor 528 = 3171
    Number of faces shared with processor 17 = 1128
    Number of faces shared with processor 48 = 616
    Number of processor patches = 4
    Number of processor faces = 6077
    Number of boundary faces = 3933

Processor 17
    Number of cells = 29516
    Number of points = 34752
    Number of faces shared with processor 16 = 1128
    Number of faces shared with processor 528 = 344
    Number of faces shared with processor 529 = 1692
    Number of faces shared with processor 1041 = 1
    Number of faces shared with processor 18 = 1892
    Number of faces shared with processor 48 = 300
    Number of faces shared with processor 49 = 500
    Number of processor patches = 7
    Number of processor faces = 5857
    Number of boundary faces = 2691

Processor 18
    Number of cells = 29516
    Number of points = 34796
    Number of faces shared with processor 528 = 4
    Number of faces shared with processor 17 = 1892
    Number of faces shared with processor 529 = 79
    Number of faces shared with processor 530 = 1646
    Number of faces shared with processor 19 = 1983
    Number of faces shared with processor 49 = 126
    Number of faces shared with processor 50 = 462
    Number of processor patches = 7
    Number of processor faces = 6192
    Number of boundary faces = 2446

Processor 19
    Number of cells = 29516
    Number of points = 35402
    Number of faces shared with processor 18 = 1983
    Number of faces shared with processor 530 = 152
    Number of faces shared with processor 531 = 1405
    Number of faces shared with processor 20 = 2372
    Number of faces shared with processor 532 = 37
    Number of faces shared with processor 21 = 5
    Number of faces shared with processor 50 = 147
    Number of faces shared with processor 51 = 1189
    Number of processor patches = 8
    Number of processor faces = 7290
    Number of boundary faces = 2087

Processor 20
    Number of cells = 29516
    Number of points = 35846
    Number of faces shared with processor 19 = 2372
    Number of faces shared with processor 532 = 1473
    Number of faces shared with processor 533 = 12
    Number of faces shared with processor 21 = 2327
    Number of faces shared with processor 51 = 67
    Number of faces shared with processor 52 = 1362
    Number of faces shared with processor 53 = 76
    Number of processor patches = 7
    Number of processor faces = 7689
    Number of boundary faces = 2019

Processor 21
    Number of cells = 29516
    Number of points = 35354
    Number of faces shared with processor 19 = 5
    Number of faces shared with processor 20 = 2327
    Number of faces shared with processor 532 = 2
    Number of faces shared with processor 533 = 1544
    Number of faces shared with processor 534 = 57
    Number of faces shared with processor 22 = 2050
    Number of faces shared with processor 23 = 5
    Number of faces shared with processor 53 = 963
    Number of faces shared with processor 54 = 185
    Number of processor patches = 9
    Number of processor faces = 7138
    Number of boundary faces = 2256

Processor 22
    Number of cells = 29516
    Number of points = 34754
    Number of faces shared with processor 533 = 1
    Number of faces shared with processor 21 = 2050
    Number of faces shared with processor 534 = 1639
    Number of faces shared with processor 535 = 134
    Number of faces shared with processor 23 = 1695
    Number of faces shared with processor 54 = 483
    Number of faces shared with processor 55 = 126
    Number of processor patches = 7
    Number of processor faces = 6128
    Number of boundary faces = 2440

Processor 23
    Number of cells = 29516
    Number of points = 34812
    Number of faces shared with processor 21 = 5
    Number of faces shared with processor 534 = 1
    Number of faces shared with processor 22 = 1695
    Number of faces shared with processor 1047 = 4
    Number of faces shared with processor 535 = 1733
    Number of faces shared with processor 24 = 1226
    Number of faces shared with processor 536 = 213
    Number of faces shared with processor 55 = 530
    Number of faces shared with processor 56 = 266
    Number of processor patches = 9
    Number of processor faces = 5673
    Number of boundary faces = 2839

Processor 24
    Number of cells = 29516
    Number of points = 35336
    Number of faces shared with processor 23 = 1226
    Number of faces shared with processor 536 = 2117
    Number of faces shared with processor 25 = 1318
    Number of faces shared with processor 56 = 588
    Number of processor patches = 4
    Number of processor faces = 5249
    Number of boundary faces = 3773

Processor 25
    Number of cells = 29516
    Number of points = 35372
    Number of faces shared with processor 24 = 1318
    Number of faces shared with processor 536 = 35
    Number of faces shared with processor 537 = 2103
    Number of faces shared with processor 26 = 1338
    Number of faces shared with processor 56 = 12
    Number of faces shared with processor 57 = 614
    Number of processor patches = 6
    Number of processor faces = 5420
    Number of boundary faces = 3662

Processor 26
    Number of cells = 29516
    Number of points = 35022
    Number of faces shared with processor 25 = 1338
    Number of faces shared with processor 537 = 205
    Number of faces shared with processor 538 = 1886
    Number of faces shared with processor 1050 = 4
    Number of faces shared with processor 27 = 629
    Number of faces shared with processor 539 = 732
    Number of faces shared with processor 1051 = 1
    Number of faces shared with processor 57 = 198
    Number of faces shared with processor 58 = 522
    Number of faces shared with processor 59 = 369
    Number of processor patches = 10
    Number of processor faces = 5884
    Number of boundary faces = 2900

Processor 27
    Number of cells = 29516
    Number of points = 38125
    Number of faces shared with processor 26 = 629
    Number of faces shared with processor 539 = 7459
    Number of faces shared with processor 28 = 279
    Number of faces shared with processor 1052 = 1
    Number of faces shared with processor 540 = 241
    Number of faces shared with processor 59 = 428
    Number of faces shared with processor 60 = 36
    Number of processor patches = 7
    Number of processor faces = 9073
    Number of boundary faces = 7325

Processor 28
    Number of cells = 29516
    Number of points = 45383
    Number of faces shared with processor 27 = 279
    Number of faces shared with processor 1052 = 151
    Number of faces shared with processor 540 = 15140
    Number of faces shared with processor 29 = 262
    Number of faces shared with processor 541 = 5
    Number of faces shared with processor 60 = 243
    Number of processor patches = 6
    Number of processor faces = 16080
    Number of boundary faces = 14983

Processor 29
    Number of cells = 29516
    Number of points = 46482
    Number of faces shared with processor 28 = 262
    Number of faces shared with processor 541 = 16569
    Number of faces shared with processor 30 = 55
    Number of faces shared with processor 60 = 10
    Number of faces shared with processor 61 = 236
    Number of faces shared with processor 62 = 96
    Number of faces shared with processor 94 = 74
    Number of processor patches = 7
    Number of processor faces = 17302
    Number of boundary faces = 16114

Processor 30
    Number of cells = 29516
    Number of points = 56819
    Number of faces shared with processor 541 = 49
    Number of faces shared with processor 29 = 55
    Number of faces shared with processor 1054 = 932
    Number of faces shared with processor 542 = 25991
    Number of faces shared with processor 31 = 15
    Number of faces shared with processor 574 = 43
    Number of faces shared with processor 62 = 570
    Number of faces shared with processor 63 = 29
    Number of processor patches = 8
    Number of processor faces = 27684
    Number of boundary faces = 25768

Processor 31
    Number of cells = 29516
    Number of points = 52131
    Number of faces shared with processor 30 = 15
    Number of faces shared with processor 1054 = 2
    Number of faces shared with processor 1566 = 1
    Number of faces shared with processor 542 = 36
    Number of faces shared with processor 1055 = 326
    Number of faces shared with processor 543 = 21624
    Number of faces shared with processor 63 = 788
    Number of faces shared with processor 575 = 426
    Number of processor patches = 8
    Number of processor faces = 23218
    Number of boundary faces = 20091

Processor 32
    Number of cells = 29516
    Number of points = 40687
    Number of faces shared with processor 0 = 329
    Number of faces shared with processor 512 = 114
    Number of faces shared with processor 1024 = 1
    Number of faces shared with processor 129 = 21
    Number of faces shared with processor 1 = 82
    Number of faces shared with processor 544 = 10431
    Number of faces shared with processor 33 = 18
    Number of faces shared with processor 64 = 501
    Number of faces shared with processor 65 = 18
    Number of faces shared with processor 97 = 21
    Number of processor patches = 10
    Number of processor faces = 11536
    Number of boundary faces = 10246

Processor 33
    Number of cells = 29516
    Number of points = 36127
    Number of faces shared with processor 1025 = 709
    Number of faces shared with processor 1 = 291
    Number of faces shared with processor 513 = 594
    Number of faces shared with processor 1568 = 12
    Number of faces shared with processor 32 = 18
    Number of faces shared with processor 544 = 18
    Number of faces shared with processor 1056 = 89
    Number of faces shared with processor 545 = 1397
    Number of faces shared with processor 546 = 85
    Number of faces shared with processor 34 = 273
    Number of faces shared with processor 577 = 1083
    Number of faces shared with processor 65 = 1494
    Number of faces shared with processor 578 = 136
    Number of faces shared with processor 1090 = 72
    Number of faces shared with processor 66 = 110
    Number of processor patches = 15
    Number of processor faces = 6381
    Number of boundary faces = 1438

Processor 34
    Number of cells = 29516
    Number of points = 39349
    Number of faces shared with processor 1025 = 20
    Number of faces shared with processor 1 = 18
    Number of faces shared with processor 513 = 40
    Number of faces shared with processor 2 = 596
    Number of faces shared with processor 514 = 2021
    Number of faces shared with processor 1026 = 50
    Number of faces shared with processor 3 = 125
    Number of faces shared with processor 515 = 237
    Number of faces shared with processor 1027 = 132
    Number of faces shared with processor 33 = 273
    Number of faces shared with processor 546 = 737
    Number of faces shared with processor 35 = 209
    Number of faces shared with processor 547 = 137
    Number of faces shared with processor 66 = 1574
    Number of faces shared with processor 578 = 981
    Number of processor patches = 15
    Number of processor faces = 7150
    Number of boundary faces = 3464

Processor 35
    Number of cells = 29516
    Number of points = 38464
    Number of faces shared with processor 3 = 676
    Number of faces shared with processor 515 = 2175
    Number of faces shared with processor 4 = 26
    Number of faces shared with processor 516 = 122
    Number of faces shared with processor 1028 = 48
    Number of faces shared with processor 34 = 209
    Number of faces shared with processor 547 = 1201
    Number of faces shared with processor 36 = 104
    Number of faces shared with processor 548 = 41
    Number of faces shared with processor 66 = 76
    Number of faces shared with processor 67 = 984
    Number of faces shared with processor 579 = 633
    Number of processor patches = 12
    Number of processor faces = 6295
    Number of boundary faces = 4546

Processor 36
    Number of cells = 29516
    Number of points = 35176
    Number of faces shared with processor 4 = 140
    Number of faces shared with processor 35 = 104
    Number of faces shared with processor 548 = 1961
    Number of faces shared with processor 37 = 108
    Number of faces shared with processor 67 = 21
    Number of faces shared with processor 68 = 812
    Number of faces shared with processor 580 = 732
    Number of faces shared with processor 69 = 21
    Number of processor patches = 8
    Number of processor faces = 3899
    Number of boundary faces = 5221

Processor 37
    Number of cells = 29516
    Number of points = 38595
    Number of faces shared with processor 4 = 35
    Number of faces shared with processor 516 = 145
    Number of faces shared with processor 1028 = 74
    Number of faces shared with processor 5 = 672
    Number of faces shared with processor 517 = 2096
    Number of faces shared with processor 36 = 108
    Number of faces shared with processor 548 = 93
    Number of faces shared with processor 549 = 1141
    Number of faces shared with processor 38 = 222
    Number of faces shared with processor 69 = 1417
    Number of faces shared with processor 581 = 308
    Number of faces shared with processor 70 = 91
    Number of processor patches = 12
    Number of processor faces = 6402
    Number of boundary faces = 4367

Processor 38
    Number of cells = 29516
    Number of points = 38120
    Number of faces shared with processor 5 = 189
    Number of faces shared with processor 517 = 279
    Number of faces shared with processor 1029 = 114
    Number of faces shared with processor 6 = 576
    Number of faces shared with processor 518 = 1657
    Number of faces shared with processor 37 = 222
    Number of faces shared with processor 549 = 90
    Number of faces shared with processor 550 = 742
    Number of faces shared with processor 39 = 390
    Number of faces shared with processor 70 = 1630
    Number of faces shared with processor 582 = 1230
    Number of processor patches = 11
    Number of processor faces = 7119
    Number of boundary faces = 2715

Processor 39
    Number of cells = 29516
    Number of points = 34463
    Number of faces shared with processor 6 = 34
    Number of faces shared with processor 518 = 48
    Number of faces shared with processor 7 = 533
    Number of faces shared with processor 519 = 902
    Number of faces shared with processor 1031 = 246
    Number of faces shared with processor 38 = 390
    Number of faces shared with processor 550 = 20
    Number of faces shared with processor 551 = 1255
    Number of faces shared with processor 40 = 429
    Number of faces shared with processor 552 = 202
    Number of faces shared with processor 70 = 22
    Number of faces shared with processor 582 = 19
    Number of faces shared with processor 1607 = 740
    Number of faces shared with processor 1095 = 478
    Number of faces shared with processor 583 = 82
    Number of faces shared with processor 71 = 1230
    Number of processor patches = 16
    Number of processor faces = 6630
    Number of boundary faces = 1098

Processor 40
    Number of cells = 29516
    Number of points = 34232
    Number of faces shared with processor 8 = 560
    Number of faces shared with processor 520 = 740
    Number of faces shared with processor 39 = 429
    Number of faces shared with processor 552 = 2128
    Number of faces shared with processor 41 = 64
    Number of faces shared with processor 1095 = 30
    Number of faces shared with processor 583 = 44
    Number of faces shared with processor 71 = 210
    Number of faces shared with processor 584 = 294
    Number of faces shared with processor 72 = 1555
    Number of faces shared with processor 73 = 639
    Number of processor patches = 11
    Number of processor faces = 6693
    Number of boundary faces = 800

Processor 41
    Number of cells = 29516
    Number of points = 33400
    Number of faces shared with processor 8 = 206
    Number of faces shared with processor 1032 = 182
    Number of faces shared with processor 520 = 319
    Number of faces shared with processor 9 = 555
    Number of faces shared with processor 1033 = 296
    Number of faces shared with processor 521 = 950
    Number of faces shared with processor 1064 = 7
    Number of faces shared with processor 40 = 64
    Number of faces shared with processor 552 = 35
    Number of faces shared with processor 553 = 777
    Number of faces shared with processor 554 = 48
    Number of faces shared with processor 42 = 540
    Number of faces shared with processor 73 = 1191
    Number of faces shared with processor 585 = 1076
    Number of faces shared with processor 586 = 57
    Number of faces shared with processor 74 = 152
    Number of processor patches = 16
    Number of processor faces = 6455
    Number of boundary faces = 583

Processor 42
    Number of cells = 29516
    Number of points = 32700
    Number of faces shared with processor 9 = 105
    Number of faces shared with processor 1033 = 26
    Number of faces shared with processor 521 = 182
    Number of faces shared with processor 10 = 595
    Number of faces shared with processor 522 = 945
    Number of faces shared with processor 41 = 540
    Number of faces shared with processor 554 = 708
    Number of faces shared with processor 555 = 172
    Number of faces shared with processor 43 = 664
    Number of faces shared with processor 586 = 236
    Number of faces shared with processor 74 = 1330
    Number of processor patches = 11
    Number of processor faces = 5503
    Number of boundary faces = 665

Processor 43
    Number of cells = 29516
    Number of points = 32595
    Number of faces shared with processor 10 = 34
    Number of faces shared with processor 522 = 34
    Number of faces shared with processor 11 = 579
    Number of faces shared with processor 523 = 747
    Number of faces shared with processor 42 = 664
    Number of faces shared with processor 555 = 908
    Number of faces shared with processor 44 = 679
    Number of faces shared with processor 556 = 1
    Number of faces shared with processor 74 = 35
    Number of faces shared with processor 587 = 70
    Number of faces shared with processor 75 = 1287
    Number of faces shared with processor 76 = 68
    Number of processor patches = 12
    Number of processor faces = 5106
    Number of boundary faces = 858

Processor 44
    Number of cells = 29516
    Number of points = 32649
    Number of faces shared with processor 11 = 14
    Number of faces shared with processor 523 = 28
    Number of faces shared with processor 12 = 588
    Number of faces shared with processor 524 = 816
    Number of faces shared with processor 43 = 679
    Number of faces shared with processor 556 = 946
    Number of faces shared with processor 45 = 665
    Number of faces shared with processor 557 = 28
    Number of faces shared with processor 76 = 1422
    Number of processor patches = 9
    Number of processor faces = 5186
    Number of boundary faces = 882

Processor 45
    Number of cells = 29516
    Number of points = 32615
    Number of faces shared with processor 12 = 14
    Number of faces shared with processor 524 = 17
    Number of faces shared with processor 13 = 598
    Number of faces shared with processor 525 = 735
    Number of faces shared with processor 14 = 60
    Number of faces shared with processor 526 = 52
    Number of faces shared with processor 44 = 665
    Number of faces shared with processor 557 = 986
    Number of faces shared with processor 46 = 570
    Number of faces shared with processor 77 = 1359
    Number of processor patches = 10
    Number of processor faces = 5056
    Number of boundary faces = 946

Processor 46
    Number of cells = 29516
    Number of points = 32632
    Number of faces shared with processor 14 = 555
    Number of faces shared with processor 526 = 859
    Number of faces shared with processor 45 = 570
    Number of faces shared with processor 557 = 133
    Number of faces shared with processor 558 = 838
    Number of faces shared with processor 47 = 620
    Number of faces shared with processor 559 = 126
    Number of faces shared with processor 77 = 114
    Number of faces shared with processor 590 = 185
    Number of faces shared with processor 78 = 1221
    Number of faces shared with processor 79 = 38
    Number of processor patches = 11
    Number of processor faces = 5259
    Number of boundary faces = 777

Processor 47
    Number of cells = 29516
    Number of points = 32594
    Number of faces shared with processor 14 = 45
    Number of faces shared with processor 526 = 48
    Number of faces shared with processor 15 = 605
    Number of faces shared with processor 527 = 657
    Number of faces shared with processor 46 = 620
    Number of faces shared with processor 559 = 1027
    Number of faces shared with processor 560 = 1
    Number of faces shared with processor 48 = 660
    Number of faces shared with processor 79 = 1302
    Number of faces shared with processor 80 = 31
    Number of processor patches = 10
    Number of processor faces = 4996
    Number of boundary faces = 966

Processor 48
    Number of cells = 29516
    Number of points = 32632
    Number of faces shared with processor 15 = 24
    Number of faces shared with processor 527 = 31
    Number of faces shared with processor 16 = 616
    Number of faces shared with processor 528 = 680
    Number of faces shared with processor 17 = 300
    Number of faces shared with processor 529 = 135
    Number of faces shared with processor 47 = 660
    Number of faces shared with processor 560 = 1077
    Number of faces shared with processor 49 = 234
    Number of faces shared with processor 80 = 1290
    Number of processor patches = 10
    Number of processor faces = 5047
    Number of boundary faces = 989

Processor 49
    Number of cells = 29516
    Number of points = 34728
    Number of faces shared with processor 17 = 500
    Number of faces shared with processor 529 = 700
    Number of faces shared with processor 1041 = 234
    Number of faces shared with processor 18 = 126
    Number of faces shared with processor 530 = 168
    Number of faces shared with processor 1042 = 48
    Number of faces shared with processor 48 = 234
    Number of faces shared with processor 560 = 239
    Number of faces shared with processor 561 = 668
    Number of faces shared with processor 50 = 527
    Number of faces shared with processor 562 = 264
    Number of faces shared with processor 1074 = 100
    Number of faces shared with processor 592 = 12
    Number of faces shared with processor 80 = 665
    Number of faces shared with processor 1105 = 99
    Number of faces shared with processor 593 = 986
    Number of faces shared with processor 81 = 1233
    Number of faces shared with processor 1648 = 4
    Number of processor patches = 18
    Number of processor faces = 6807
    Number of boundary faces = 987

Processor 50
    Number of cells = 29516
    Number of points = 36379
    Number of faces shared with processor 18 = 462
    Number of faces shared with processor 530 = 374
    Number of faces shared with processor 19 = 147
    Number of faces shared with processor 531 = 91
    Number of faces shared with processor 49 = 527
    Number of faces shared with processor 562 = 803
    Number of faces shared with processor 563 = 362
    Number of faces shared with processor 51 = 402
    Number of faces shared with processor 81 = 74
    Number of faces shared with processor 82 = 765
    Number of faces shared with processor 594 = 468
    Number of processor patches = 11
    Number of processor faces = 4475
    Number of boundary faces = 2792

Processor 51
    Number of cells = 29516
    Number of points = 36163
    Number of faces shared with processor 19 = 1189
    Number of faces shared with processor 531 = 373
    Number of faces shared with processor 20 = 67
    Number of faces shared with processor 532 = 26
    Number of faces shared with processor 50 = 402
    Number of faces shared with processor 563 = 1124
    Number of faces shared with processor 564 = 87
    Number of faces shared with processor 52 = 683
    Number of faces shared with processor 82 = 58
    Number of faces shared with processor 83 = 472
    Number of processor patches = 10
    Number of processor faces = 4481
    Number of boundary faces = 3900

Processor 52
    Number of cells = 29516
    Number of points = 35444
    Number of faces shared with processor 20 = 1362
    Number of faces shared with processor 532 = 284
    Number of faces shared with processor 51 = 683
    Number of faces shared with processor 564 = 759
    Number of faces shared with processor 53 = 610
    Number of faces shared with processor 83 = 16
    Number of faces shared with processor 84 = 236
    Number of faces shared with processor 596 = 403
    Number of faces shared with processor 85 = 16
    Number of processor patches = 9
    Number of processor faces = 4369
    Number of boundary faces = 4343

Processor 53
    Number of cells = 29516
    Number of points = 36473
    Number of faces shared with processor 20 = 76
    Number of faces shared with processor 532 = 29
    Number of faces shared with processor 21 = 963
    Number of faces shared with processor 533 = 561
    Number of faces shared with processor 52 = 610
    Number of faces shared with processor 564 = 190
    Number of faces shared with processor 565 = 1149
    Number of faces shared with processor 54 = 436
    Number of faces shared with processor 85 = 679
    Number of faces shared with processor 86 = 47
    Number of processor patches = 10
    Number of processor faces = 4740
    Number of boundary faces = 3614

Processor 54
    Number of cells = 29516
    Number of points = 36335
    Number of faces shared with processor 21 = 185
    Number of faces shared with processor 533 = 184
    Number of faces shared with processor 22 = 483
    Number of faces shared with processor 534 = 438
    Number of faces shared with processor 53 = 436
    Number of faces shared with processor 565 = 442
    Number of faces shared with processor 566 = 873
    Number of faces shared with processor 55 = 691
    Number of faces shared with processor 86 = 721
    Number of faces shared with processor 598 = 488
    Number of processor patches = 10
    Number of processor faces = 4941
    Number of boundary faces = 2495

Processor 55
    Number of cells = 29516
    Number of points = 33582
    Number of faces shared with processor 22 = 126
    Number of faces shared with processor 534 = 156
    Number of faces shared with processor 23 = 530
    Number of faces shared with processor 535 = 744
    Number of faces shared with processor 566 = 212
    Number of faces shared with processor 54 = 691
    Number of faces shared with processor 567 = 747
    Number of faces shared with processor 56 = 303
    Number of faces shared with processor 568 = 187
    Number of faces shared with processor 86 = 38
    Number of faces shared with processor 598 = 107
    Number of faces shared with processor 87 = 1324
    Number of faces shared with processor 599 = 188
    Number of faces shared with processor 600 = 56
    Number of faces shared with processor 88 = 461
    Number of processor patches = 15
    Number of processor faces = 5870
    Number of boundary faces = 802

Processor 56
    Number of cells = 29516
    Number of points = 32584
    Number of faces shared with processor 23 = 266
    Number of faces shared with processor 535 = 144
    Number of faces shared with processor 24 = 588
    Number of faces shared with processor 536 = 630
    Number of faces shared with processor 25 = 12
    Number of faces shared with processor 55 = 303
    Number of faces shared with processor 568 = 1057
    Number of faces shared with processor 57 = 684
    Number of faces shared with processor 88 = 1250
    Number of processor patches = 9
    Number of processor faces = 4934
    Number of boundary faces = 1008

Processor 57
    Number of cells = 29516
    Number of points = 32582
    Number of faces shared with processor 25 = 614
    Number of faces shared with processor 537 = 623
    Number of faces shared with processor 26 = 198
    Number of faces shared with processor 538 = 121
    Number of faces shared with processor 568 = 24
    Number of faces shared with processor 56 = 684
    Number of faces shared with processor 569 = 1042
    Number of faces shared with processor 570 = 11
    Number of faces shared with processor 58 = 377
    Number of faces shared with processor 88 = 30
    Number of faces shared with processor 89 = 1230
    Number of processor patches = 11
    Number of processor faces = 4954
    Number of boundary faces = 984

Processor 58
    Number of cells = 29516
    Number of points = 32508
    Number of faces shared with processor 26 = 522
    Number of faces shared with processor 538 = 319
    Number of faces shared with processor 57 = 377
    Number of faces shared with processor 570 = 1041
    Number of faces shared with processor 89 = 647
    Number of faces shared with processor 90 = 858
    Number of faces shared with processor 91 = 609
    Number of faces shared with processor 123 = 406
    Number of processor patches = 8
    Number of processor faces = 4779
    Number of boundary faces = 1015

Processor 59
    Number of cells = 29516
    Number of points = 33095
    Number of faces shared with processor 26 = 369
    Number of faces shared with processor 538 = 240
    Number of faces shared with processor 27 = 428
    Number of faces shared with processor 539 = 701
    Number of faces shared with processor 1051 = 527
    Number of faces shared with processor 571 = 1186
    Number of faces shared with processor 60 = 105
    Number of faces shared with processor 603 = 25
    Number of faces shared with processor 91 = 1610
    Number of faces shared with processor 92 = 45
    Number of processor patches = 10
    Number of processor faces = 5236
    Number of boundary faces = 1184

Processor 60
    Number of cells = 29516
    Number of points = 33615
    Number of faces shared with processor 27 = 36
    Number of faces shared with processor 539 = 63
    Number of faces shared with processor 1051 = 51
    Number of faces shared with processor 2076 = 251
    Number of faces shared with processor 28 = 243
    Number of faces shared with processor 540 = 201
    Number of faces shared with processor 1052 = 257
    Number of faces shared with processor 1564 = 876
    Number of faces shared with processor 2077 = 4
    Number of faces shared with processor 29 = 10
    Number of faces shared with processor 541 = 10
    Number of faces shared with processor 1053 = 10
    Number of faces shared with processor 1565 = 36
    Number of faces shared with processor 59 = 105
    Number of faces shared with processor 571 = 14
    Number of faces shared with processor 572 = 1848
    Number of faces shared with processor 61 = 192
    Number of faces shared with processor 92 = 1833
    Number of processor patches = 18
    Number of processor faces = 6040
    Number of boundary faces = 1866

Processor 61
    Number of cells = 29516
    Number of points = 33673
    Number of faces shared with processor 2077 = 221
    Number of faces shared with processor 29 = 236
    Number of faces shared with processor 541 = 235
    Number of faces shared with processor 1053 = 236
    Number of faces shared with processor 1565 = 1050
    Number of faces shared with processor 572 = 12
    Number of faces shared with processor 60 = 192
    Number of faces shared with processor 573 = 1787
    Number of faces shared with processor 92 = 51
    Number of faces shared with processor 605 = 29
    Number of faces shared with processor 93 = 1976
    Number of faces shared with processor 126 = 45
    Number of faces shared with processor 638 = 45
    Number of faces shared with processor 1150 = 151
    Number of processor patches = 14
    Number of processor faces = 6266
    Number of boundary faces = 1748

Processor 62
    Number of cells = 29516
    Number of points = 54619
    Number of faces shared with processor 29 = 96
    Number of faces shared with processor 30 = 570
    Number of faces shared with processor 574 = 23939
    Number of faces shared with processor 63 = 5
    Number of faces shared with processor 94 = 662
    Number of faces shared with processor 95 = 31
    Number of faces shared with processor 127 = 11
    Number of processor patches = 7
    Number of processor faces = 25314
    Number of boundary faces = 23798

Processor 63
    Number of cells = 29516
    Number of points = 54019
    Number of faces shared with processor 30 = 29
    Number of faces shared with processor 542 = 29
    Number of faces shared with processor 31 = 788
    Number of faces shared with processor 62 = 5
    Number of faces shared with processor 574 = 5
    Number of faces shared with processor 1087 = 2282
    Number of faces shared with processor 575 = 20703
    Number of faces shared with processor 607 = 40
    Number of faces shared with processor 95 = 886
    Number of processor patches = 9
    Number of processor faces = 24767
    Number of boundary faces = 22781

Processor 64
    Number of cells = 29516
    Number of points = 37204
    Number of faces shared with processor 641 = 27
    Number of faces shared with processor 129 = 110
    Number of faces shared with processor 1153 = 95
    Number of faces shared with processor 32 = 501
    Number of faces shared with processor 544 = 562
    Number of faces shared with processor 1056 = 1160
    Number of faces shared with processor 673 = 38
    Number of faces shared with processor 1185 = 38
    Number of faces shared with processor 1697 = 211
    Number of faces shared with processor 161 = 235
    Number of faces shared with processor 2624 = 4
    Number of faces shared with processor 192 = 4
    Number of faces shared with processor 576 = 2529
    Number of faces shared with processor 1632 = 1
    Number of faces shared with processor 1120 = 1
    Number of faces shared with processor 96 = 2343
    Number of processor patches = 16
    Number of processor faces = 7859
    Number of boundary faces = 2440

Processor 65
    Number of cells = 29516
    Number of points = 36187
    Number of faces shared with processor 32 = 18
    Number of faces shared with processor 544 = 18
    Number of faces shared with processor 1056 = 82
    Number of faces shared with processor 33 = 1494
    Number of faces shared with processor 577 = 2093
    Number of faces shared with processor 578 = 65
    Number of faces shared with processor 66 = 110
    Number of faces shared with processor 97 = 1787
    Number of faces shared with processor 609 = 187
    Number of faces shared with processor 610 = 96
    Number of faces shared with processor 98 = 169
    Number of processor patches = 11
    Number of processor faces = 6119
    Number of boundary faces = 1767

Processor 66
    Number of cells = 29516
    Number of points = 36880
    Number of faces shared with processor 33 = 110
    Number of faces shared with processor 34 = 1574
    Number of faces shared with processor 35 = 76
    Number of faces shared with processor 65 = 110
    Number of faces shared with processor 578 = 776
    Number of faces shared with processor 579 = 247
    Number of faces shared with processor 67 = 99
    Number of faces shared with processor 98 = 1940
    Number of processor patches = 8
    Number of processor faces = 4932
    Number of boundary faces = 2964

Processor 67
    Number of cells = 29516
    Number of points = 35970
    Number of faces shared with processor 35 = 984
    Number of faces shared with processor 548 = 16
    Number of faces shared with processor 36 = 21
    Number of faces shared with processor 66 = 99
    Number of faces shared with processor 579 = 848
    Number of faces shared with processor 580 = 372
    Number of faces shared with processor 68 = 357
    Number of faces shared with processor 98 = 3
    Number of faces shared with processor 99 = 1332
    Number of processor patches = 9
    Number of processor faces = 4032
    Number of boundary faces = 4372

Processor 68
    Number of cells = 29516
    Number of points = 36634
    Number of faces shared with processor 36 = 812
    Number of faces shared with processor 67 = 357
    Number of faces shared with processor 580 = 3679
    Number of faces shared with processor 69 = 240
    Number of faces shared with processor 99 = 118
    Number of faces shared with processor 100 = 213
    Number of faces shared with processor 101 = 96
    Number of processor patches = 7
    Number of processor faces = 5515
    Number of boundary faces = 7889

Processor 69
    Number of cells = 29516
    Number of points = 36704
    Number of faces shared with processor 36 = 21
    Number of faces shared with processor 548 = 22
    Number of faces shared with processor 37 = 1417
    Number of faces shared with processor 68 = 240
    Number of faces shared with processor 580 = 453
    Number of faces shared with processor 581 = 55
    Number of faces shared with processor 70 = 416
    Number of faces shared with processor 101 = 1541
    Number of faces shared with processor 102 = 36
    Number of processor patches = 9
    Number of processor faces = 4201
    Number of boundary faces = 4326

Processor 70
    Number of cells = 29516
    Number of points = 36898
    Number of faces shared with processor 37 = 91
    Number of faces shared with processor 38 = 1630
    Number of faces shared with processor 39 = 22
    Number of faces shared with processor 581 = 43
    Number of faces shared with processor 69 = 416
    Number of faces shared with processor 582 = 728
    Number of faces shared with processor 71 = 176
    Number of faces shared with processor 102 = 1895
    Number of processor patches = 8
    Number of processor faces = 5001
    Number of boundary faces = 2878

Processor 71
    Number of cells = 29516
    Number of points = 36060
    Number of faces shared with processor 134 = 76
    Number of faces shared with processor 646 = 54
    Number of faces shared with processor 39 = 1230
    Number of faces shared with processor 40 = 210
    Number of faces shared with processor 70 = 176
    Number of faces shared with processor 582 = 64
    Number of faces shared with processor 583 = 3764
    Number of faces shared with processor 72 = 546
    Number of faces shared with processor 102 = 195
    Number of faces shared with processor 614 = 69
    Number of faces shared with processor 615 = 2
    Number of faces shared with processor 103 = 902
    Number of processor patches = 12
    Number of processor faces = 7288
    Number of boundary faces = 822

Processor 72
    Number of cells = 29516
    Number of points = 38841
    Number of faces shared with processor 649 = 5
    Number of faces shared with processor 137 = 13
    Number of faces shared with processor 40 = 1555
    Number of faces shared with processor 583 = 391
    Number of faces shared with processor 71 = 546
    Number of faces shared with processor 584 = 5379
    Number of faces shared with processor 73 = 46
    Number of faces shared with processor 1127 = 14
    Number of faces shared with processor 615 = 42
    Number of faces shared with processor 103 = 51
    Number of faces shared with processor 1640 = 104
    Number of faces shared with processor 1128 = 569
    Number of faces shared with processor 616 = 263
    Number of faces shared with processor 104 = 725
    Number of faces shared with processor 105 = 487
    Number of processor patches = 15
    Number of processor faces = 10190
    Number of boundary faces = 709

Processor 73
    Number of cells = 29516
    Number of points = 35208
    Number of faces shared with processor 40 = 639
    Number of faces shared with processor 552 = 16
    Number of faces shared with processor 41 = 1191
    Number of faces shared with processor 584 = 22
    Number of faces shared with processor 72 = 46
    Number of faces shared with processor 585 = 2789
    Number of faces shared with processor 74 = 422
    Number of faces shared with processor 105 = 2253
    Number of faces shared with processor 106 = 272
    Number of processor patches = 9
    Number of processor faces = 7650
    Number of boundary faces = 703

Processor 74
    Number of cells = 29516
    Number of points = 33561
    Number of faces shared with processor 41 = 152
    Number of faces shared with processor 42 = 1330
    Number of faces shared with processor 555 = 3
    Number of faces shared with processor 43 = 35
    Number of faces shared with processor 73 = 422
    Number of faces shared with processor 585 = 160
    Number of faces shared with processor 586 = 988
    Number of faces shared with processor 587 = 184
    Number of faces shared with processor 75 = 541
    Number of faces shared with processor 1130 = 138
    Number of faces shared with processor 618 = 276
    Number of faces shared with processor 106 = 1258
    Number of processor patches = 12
    Number of processor faces = 5487
    Number of boundary faces = 1285

Processor 75
    Number of cells = 29516
    Number of points = 34726
    Number of faces shared with processor 43 = 1287
    Number of faces shared with processor 74 = 541
    Number of faces shared with processor 587 = 2263
    Number of faces shared with processor 76 = 198
    Number of faces shared with processor 618 = 8
    Number of faces shared with processor 106 = 170
    Number of faces shared with processor 107 = 2188
    Number of faces shared with processor 620 = 54
    Number of faces shared with processor 108 = 446
    Number of processor patches = 9
    Number of processor faces = 7155
    Number of boundary faces = 780

Processor 76
    Number of cells = 29516
    Number of points = 35006
    Number of faces shared with processor 555 = 38
    Number of faces shared with processor 43 = 68
    Number of faces shared with processor 556 = 804
    Number of faces shared with processor 44 = 1422
    Number of faces shared with processor 1099 = 87
    Number of faces shared with processor 587 = 167
    Number of faces shared with processor 75 = 198
    Number of faces shared with processor 588 = 831
    Number of faces shared with processor 589 = 49
    Number of faces shared with processor 77 = 524
    Number of faces shared with processor 108 = 1302
    Number of faces shared with processor 620 = 126
    Number of faces shared with processor 1132 = 84
    Number of faces shared with processor 1644 = 1362
    Number of processor patches = 14
    Number of processor faces = 7062
    Number of boundary faces = 1636

Processor 77
    Number of cells = 29516
    Number of points = 34779
    Number of faces shared with processor 45 = 1359
    Number of faces shared with processor 557 = 791
    Number of faces shared with processor 558 = 36
    Number of faces shared with processor 46 = 114
    Number of faces shared with processor 76 = 524
    Number of faces shared with processor 589 = 981
    Number of faces shared with processor 78 = 198
    Number of faces shared with processor 590 = 30
    Number of faces shared with processor 1102 = 165
    Number of faces shared with processor 108 = 31
    Number of faces shared with processor 620 = 3
    Number of faces shared with processor 1132 = 2
    Number of faces shared with processor 1644 = 32
    Number of faces shared with processor 109 = 1376
    Number of faces shared with processor 621 = 87
    Number of faces shared with processor 1133 = 85
    Number of faces shared with processor 1645 = 1384
    Number of processor patches = 17
    Number of processor faces = 7198
    Number of boundary faces = 1346

Processor 78
    Number of cells = 29516
    Number of points = 33878
    Number of faces shared with processor 46 = 1221
    Number of faces shared with processor 77 = 198
    Number of faces shared with processor 590 = 2041
    Number of faces shared with processor 79 = 462
    Number of faces shared with processor 109 = 523
    Number of faces shared with processor 621 = 41
    Number of faces shared with processor 110 = 1521
    Number of faces shared with processor 623 = 4
    Number of faces shared with processor 111 = 303
    Number of processor patches = 9
    Number of processor faces = 6314
    Number of boundary faces = 814

Processor 79
    Number of cells = 29516
    Number of points = 34172
    Number of faces shared with processor 558 = 1
    Number of faces shared with processor 46 = 38
    Number of faces shared with processor 47 = 1302
    Number of faces shared with processor 559 = 336
    Number of faces shared with processor 1102 = 28
    Number of faces shared with processor 590 = 147
    Number of faces shared with processor 78 = 462
    Number of faces shared with processor 591 = 1467
    Number of faces shared with processor 80 = 273
    Number of faces shared with processor 1647 = 276
    Number of faces shared with processor 1135 = 261
    Number of faces shared with processor 623 = 304
    Number of faces shared with processor 111 = 1482
    Number of faces shared with processor 1648 = 2
    Number of faces shared with processor 1136 = 69
    Number of faces shared with processor 624 = 39
    Number of faces shared with processor 112 = 292
    Number of processor patches = 17
    Number of processor faces = 6779
    Number of boundary faces = 957

Processor 80
    Number of cells = 29516
    Number of points = 35793
    Number of faces shared with processor 47 = 31
    Number of faces shared with processor 559 = 26
    Number of faces shared with processor 48 = 1290
    Number of faces shared with processor 560 = 1143
    Number of faces shared with processor 49 = 665
    Number of faces shared with processor 591 = 252
    Number of faces shared with processor 79 = 273
    Number of faces shared with processor 592 = 1018
    Number of faces shared with processor 593 = 66
    Number of faces shared with processor 81 = 1
    Number of faces shared with processor 1648 = 2052
    Number of faces shared with processor 1136 = 126
    Number of faces shared with processor 624 = 126
    Number of faces shared with processor 112 = 1417
    Number of processor patches = 14
    Number of processor faces = 8486
    Number of boundary faces = 1218

Processor 81
    Number of cells = 29516
    Number of points = 36437
    Number of faces shared with processor 49 = 1233
    Number of faces shared with processor 50 = 74
    Number of faces shared with processor 80 = 1
    Number of faces shared with processor 593 = 827
    Number of faces shared with processor 82 = 200
    Number of faces shared with processor 594 = 661
    Number of faces shared with processor 1136 = 205
    Number of faces shared with processor 624 = 102
    Number of faces shared with processor 112 = 419
    Number of faces shared with processor 625 = 312
    Number of faces shared with processor 113 = 1410
    Number of processor patches = 11
    Number of processor faces = 5444
    Number of boundary faces = 2353

Processor 82
    Number of cells = 29516
    Number of points = 37071
    Number of faces shared with processor 50 = 765
    Number of faces shared with processor 51 = 58
    Number of faces shared with processor 81 = 200
    Number of faces shared with processor 594 = 859
    Number of faces shared with processor 83 = 371
    Number of faces shared with processor 113 = 41
    Number of faces shared with processor 114 = 1509
    Number of faces shared with processor 115 = 11
    Number of faces shared with processor 627 = 144
    Number of processor patches = 9
    Number of processor faces = 3958
    Number of boundary faces = 3174

Processor 83
    Number of cells = 29516
    Number of points = 37477
    Number of faces shared with processor 51 = 472
    Number of faces shared with processor 563 = 401
    Number of faces shared with processor 52 = 16
    Number of faces shared with processor 82 = 371
    Number of faces shared with processor 595 = 1209
    Number of faces shared with processor 84 = 271
    Number of faces shared with processor 596 = 258
    Number of faces shared with processor 1108 = 108
    Number of faces shared with processor 115 = 570
    Number of faces shared with processor 627 = 549
    Number of faces shared with processor 116 = 21
    Number of faces shared with processor 628 = 13
    Number of processor patches = 12
    Number of processor faces = 4259
    Number of boundary faces = 5404

Processor 84
    Number of cells = 29516
    Number of points = 37006
    Number of faces shared with processor 52 = 236
    Number of faces shared with processor 83 = 271
    Number of faces shared with processor 596 = 5181
    Number of faces shared with processor 85 = 115
    Number of faces shared with processor 116 = 360
    Number of processor patches = 5
    Number of processor faces = 6163
    Number of boundary faces = 7120

Processor 85
    Number of cells = 29516
    Number of points = 37591
    Number of faces shared with processor 52 = 16
    Number of faces shared with processor 564 = 33
    Number of faces shared with processor 53 = 679
    Number of faces shared with processor 565 = 464
    Number of faces shared with processor 596 = 179
    Number of faces shared with processor 84 = 115
    Number of faces shared with processor 1108 = 299
    Number of faces shared with processor 597 = 902
    Number of faces shared with processor 86 = 426
    Number of faces shared with processor 116 = 29
    Number of faces shared with processor 628 = 34
    Number of faces shared with processor 117 = 931
    Number of faces shared with processor 629 = 168
    Number of processor patches = 13
    Number of processor faces = 4275
    Number of boundary faces = 4412

Processor 86
    Number of cells = 29516
    Number of points = 36309
    Number of faces shared with processor 53 = 47
    Number of faces shared with processor 54 = 721
    Number of faces shared with processor 55 = 38
    Number of faces shared with processor 85 = 426
    Number of faces shared with processor 598 = 959
    Number of faces shared with processor 87 = 209
    Number of faces shared with processor 117 = 212
    Number of faces shared with processor 630 = 3
    Number of faces shared with processor 118 = 1273
    Number of processor patches = 9
    Number of processor faces = 3888
    Number of boundary faces = 2854

Processor 87
    Number of cells = 29516
    Number of points = 35931
    Number of faces shared with processor 55 = 1324
    Number of faces shared with processor 86 = 209
    Number of faces shared with processor 598 = 892
    Number of faces shared with processor 599 = 825
    Number of faces shared with processor 88 = 252
    Number of faces shared with processor 600 = 6
    Number of faces shared with processor 119 = 1851
    Number of faces shared with processor 631 = 108
    Number of faces shared with processor 120 = 215
    Number of processor patches = 9
    Number of processor faces = 5682
    Number of boundary faces = 2162

Processor 88
    Number of cells = 29516
    Number of points = 32796
    Number of faces shared with processor 55 = 461
    Number of faces shared with processor 56 = 1250
    Number of faces shared with processor 568 = 472
    Number of faces shared with processor 57 = 30
    Number of faces shared with processor 569 = 11
    Number of faces shared with processor 87 = 252
    Number of faces shared with processor 600 = 759
    Number of faces shared with processor 89 = 528
    Number of faces shared with processor 601 = 128
    Number of faces shared with processor 120 = 1751
    Number of processor patches = 10
    Number of processor faces = 5642
    Number of boundary faces = 714

Processor 89
    Number of cells = 29516
    Number of points = 32594
    Number of faces shared with processor 57 = 1230
    Number of faces shared with processor 569 = 92
    Number of faces shared with processor 570 = 64
    Number of faces shared with processor 58 = 647
    Number of faces shared with processor 88 = 528
    Number of faces shared with processor 601 = 948
    Number of faces shared with processor 120 = 198
    Number of faces shared with processor 121 = 1353
    Number of processor patches = 8
    Number of processor faces = 5060
    Number of boundary faces = 902

Processor 90
    Number of cells = 29516
    Number of points = 34954
    Number of faces shared with processor 153 = 361
    Number of faces shared with processor 665 = 144
    Number of faces shared with processor 155 = 276
    Number of faces shared with processor 667 = 223
    Number of faces shared with processor 185 = 175
    Number of faces shared with processor 697 = 113
    Number of faces shared with processor 58 = 858
    Number of faces shared with processor 1082 = 5
    Number of faces shared with processor 570 = 848
    Number of faces shared with processor 602 = 1437
    Number of faces shared with processor 121 = 576
    Number of faces shared with processor 633 = 105
    Number of faces shared with processor 122 = 1311
    Number of faces shared with processor 634 = 32
    Number of faces shared with processor 123 = 220
    Number of faces shared with processor 635 = 205
    Number of processor patches = 16
    Number of processor faces = 6889
    Number of boundary faces = 454

Processor 91
    Number of cells = 29516
    Number of points = 33081
    Number of faces shared with processor 58 = 609
    Number of faces shared with processor 59 = 1610
    Number of faces shared with processor 603 = 1175
    Number of faces shared with processor 92 = 150
    Number of faces shared with processor 123 = 1662
    Number of processor patches = 5
    Number of processor faces = 5206
    Number of boundary faces = 1195

Processor 92
    Number of cells = 29516
    Number of points = 33598
    Number of faces shared with processor 59 = 45
    Number of faces shared with processor 571 = 9
    Number of faces shared with processor 572 = 117
    Number of faces shared with processor 60 = 1833
    Number of faces shared with processor 61 = 51
    Number of faces shared with processor 91 = 150
    Number of faces shared with processor 603 = 30
    Number of faces shared with processor 604 = 1746
    Number of faces shared with processor 93 = 204
    Number of faces shared with processor 123 = 48
    Number of faces shared with processor 635 = 6
    Number of faces shared with processor 124 = 1830
    Number of faces shared with processor 636 = 117
    Number of processor patches = 13
    Number of processor faces = 6186
    Number of boundary faces = 1686

Processor 93
    Number of cells = 29516
    Number of points = 33666
    Number of faces shared with processor 158 = 27
    Number of faces shared with processor 670 = 27
    Number of faces shared with processor 1182 = 90
    Number of faces shared with processor 61 = 1976
    Number of faces shared with processor 92 = 204
    Number of faces shared with processor 605 = 1799
    Number of faces shared with processor 124 = 64
    Number of faces shared with processor 636 = 4
    Number of faces shared with processor 637 = 14
    Number of faces shared with processor 125 = 1957
    Number of faces shared with processor 126 = 18
    Number of faces shared with processor 638 = 18
    Number of faces shared with processor 1150 = 60
    Number of processor patches = 13
    Number of processor faces = 6258
    Number of boundary faces = 1742

Processor 94
    Number of cells = 29516
    Number of points = 49311
    Number of faces shared with processor 29 = 74
    Number of faces shared with processor 159 = 17
    Number of faces shared with processor 574 = 100
    Number of faces shared with processor 62 = 662
    Number of faces shared with processor 606 = 18460
    Number of faces shared with processor 126 = 833
    Number of faces shared with processor 127 = 20
    Number of processor patches = 7
    Number of processor faces = 20166
    Number of boundary faces = 18352

Processor 95
    Number of cells = 29516
    Number of points = 53263
    Number of faces shared with processor 62 = 31
    Number of faces shared with processor 574 = 31
    Number of faces shared with processor 63 = 886
    Number of faces shared with processor 607 = 22089
    Number of faces shared with processor 639 = 116
    Number of faces shared with processor 127 = 895
    Number of processor patches = 6
    Number of processor faces = 24048
    Number of boundary faces = 21880

Processor 96
    Number of cells = 29516
    Number of points = 37607
    Number of faces shared with processor 128 = 2508
    Number of faces shared with processor 1697 = 186
    Number of faces shared with processor 1185 = 32
    Number of faces shared with processor 673 = 32
    Number of faces shared with processor 161 = 192
    Number of faces shared with processor 576 = 23
    Number of faces shared with processor 64 = 2343
    Number of faces shared with processor 2241 = 44
    Number of faces shared with processor 1729 = 48
    Number of faces shared with processor 1217 = 7
    Number of faces shared with processor 705 = 21
    Number of faces shared with processor 193 = 91
    Number of faces shared with processor 1120 = 9
    Number of faces shared with processor 608 = 3188
    Number of processor patches = 14
    Number of processor faces = 8724
    Number of boundary faces = 2082

Processor 97
    Number of cells = 29516
    Number of points = 36481
    Number of faces shared with processor 129 = 1227
    Number of faces shared with processor 641 = 504
    Number of faces shared with processor 642 = 70
    Number of faces shared with processor 130 = 126
    Number of faces shared with processor 32 = 21
    Number of faces shared with processor 544 = 21
    Number of faces shared with processor 1056 = 144
    Number of faces shared with processor 162 = 51
    Number of faces shared with processor 65 = 1787
    Number of faces shared with processor 609 = 2775
    Number of faces shared with processor 610 = 11
    Number of faces shared with processor 98 = 17
    Number of processor patches = 12
    Number of processor faces = 6754
    Number of boundary faces = 1645

Processor 98
    Number of cells = 29516
    Number of points = 36551
    Number of faces shared with processor 130 = 1495
    Number of faces shared with processor 643 = 40
    Number of faces shared with processor 131 = 25
    Number of faces shared with processor 65 = 169
    Number of faces shared with processor 578 = 87
    Number of faces shared with processor 66 = 1940
    Number of faces shared with processor 579 = 21
    Number of faces shared with processor 67 = 3
    Number of faces shared with processor 97 = 17
    Number of faces shared with processor 610 = 699
    Number of faces shared with processor 611 = 205
    Number of faces shared with processor 99 = 106
    Number of processor patches = 12
    Number of processor faces = 4807
    Number of boundary faces = 3194

Processor 99
    Number of cells = 29516
    Number of points = 35912
    Number of faces shared with processor 131 = 1370
    Number of faces shared with processor 643 = 33
    Number of faces shared with processor 579 = 48
    Number of faces shared with processor 67 = 1332
    Number of faces shared with processor 580 = 23
    Number of faces shared with processor 68 = 118
    Number of faces shared with processor 98 = 106
    Number of faces shared with processor 611 = 508
    Number of faces shared with processor 612 = 66
    Number of faces shared with processor 100 = 382
    Number of processor patches = 10
    Number of processor faces = 3986
    Number of boundary faces = 5339

Processor 100
    Number of cells = 29516
    Number of points = 34893
    Number of faces shared with processor 131 = 316
    Number of faces shared with processor 644 = 83
    Number of faces shared with processor 132 = 539
    Number of faces shared with processor 133 = 301
    Number of faces shared with processor 580 = 13
    Number of faces shared with processor 68 = 213
    Number of faces shared with processor 99 = 382
    Number of faces shared with processor 612 = 1155
    Number of faces shared with processor 101 = 451
    Number of processor patches = 9
    Number of processor faces = 3453
    Number of boundary faces = 6985

Processor 101
    Number of cells = 29516
    Number of points = 36419
    Number of faces shared with processor 133 = 1717
    Number of faces shared with processor 645 = 8
    Number of faces shared with processor 68 = 96
    Number of faces shared with processor 580 = 79
    Number of faces shared with processor 581 = 1
    Number of faces shared with processor 69 = 1541
    Number of faces shared with processor 100 = 451
    Number of faces shared with processor 612 = 142
    Number of faces shared with processor 613 = 44
    Number of faces shared with processor 102 = 445
    Number of processor patches = 10
    Number of processor faces = 4524
    Number of boundary faces = 4866

Processor 102
    Number of cells = 29516
    Number of points = 36546
    Number of faces shared with processor 133 = 56
    Number of faces shared with processor 134 = 1784
    Number of faces shared with processor 581 = 5
    Number of faces shared with processor 69 = 36
    Number of faces shared with processor 70 = 1895
    Number of faces shared with processor 582 = 91
    Number of faces shared with processor 71 = 195
    Number of faces shared with processor 101 = 445
    Number of faces shared with processor 614 = 668
    Number of processor patches = 9
    Number of processor faces = 5175
    Number of boundary faces = 2935

Processor 103
    Number of cells = 29516
    Number of points = 37873
    Number of faces shared with processor 134 = 14
    Number of faces shared with processor 646 = 8
    Number of faces shared with processor 647 = 241
    Number of faces shared with processor 135 = 848
    Number of faces shared with processor 166 = 226
    Number of faces shared with processor 198 = 247
    Number of faces shared with processor 583 = 10
    Number of faces shared with processor 71 = 902
    Number of faces shared with processor 72 = 51
    Number of faces shared with processor 615 = 5925
    Number of faces shared with processor 616 = 196
    Number of faces shared with processor 104 = 681
    Number of processor patches = 12
    Number of processor faces = 9349
    Number of boundary faces = 336

Processor 104
    Number of cells = 29516
    Number of points = 39168
    Number of faces shared with processor 647 = 34
    Number of faces shared with processor 135 = 363
    Number of faces shared with processor 136 = 697
    Number of faces shared with processor 137 = 682
    Number of faces shared with processor 72 = 725
    Number of faces shared with processor 103 = 681
    Number of faces shared with processor 616 = 7780
    Number of processor patches = 7
    Number of processor faces = 10962
    Number of boundary faces = 460

Processor 105
    Number of cells = 29516
    Number of points = 39038
    Number of faces shared with processor 1673 = 292
    Number of faces shared with processor 1161 = 438
    Number of faces shared with processor 649 = 541
    Number of faces shared with processor 137 = 786
    Number of faces shared with processor 1162 = 16
    Number of faces shared with processor 650 = 35
    Number of faces shared with processor 138 = 87
    Number of faces shared with processor 584 = 155
    Number of faces shared with processor 72 = 487
    Number of faces shared with processor 73 = 2253
    Number of faces shared with processor 585 = 214
    Number of faces shared with processor 617 = 4659
    Number of faces shared with processor 618 = 12
    Number of faces shared with processor 106 = 450
    Number of processor patches = 14
    Number of processor faces = 10425
    Number of boundary faces = 611

Processor 106
    Number of cells = 29516
    Number of points = 36467
    Number of faces shared with processor 1162 = 35
    Number of faces shared with processor 650 = 35
    Number of faces shared with processor 138 = 531
    Number of faces shared with processor 585 = 10
    Number of faces shared with processor 73 = 272
    Number of faces shared with processor 74 = 1258
    Number of faces shared with processor 75 = 170
    Number of faces shared with processor 105 = 450
    Number of faces shared with processor 618 = 4164
    Number of faces shared with processor 107 = 517
    Number of processor patches = 10
    Number of processor faces = 7442
    Number of boundary faces = 596

Processor 107
    Number of cells = 29516
    Number of points = 38579
    Number of faces shared with processor 1162 = 1
    Number of faces shared with processor 650 = 1
    Number of faces shared with processor 138 = 21
    Number of faces shared with processor 651 = 297
    Number of faces shared with processor 139 = 765
    Number of faces shared with processor 652 = 1
    Number of faces shared with processor 140 = 279
    Number of faces shared with processor 587 = 148
    Number of faces shared with processor 75 = 2188
    Number of faces shared with processor 106 = 517
    Number of faces shared with processor 618 = 68
    Number of faces shared with processor 619 = 5688
    Number of faces shared with processor 620 = 61
    Number of faces shared with processor 108 = 237
    Number of processor patches = 14
    Number of processor faces = 10272
    Number of boundary faces = 525

Processor 108
    Number of cells = 29516
    Number of points = 33920
    Number of faces shared with processor 140 = 1439
    Number of faces shared with processor 75 = 446
    Number of faces shared with processor 76 = 1302
    Number of faces shared with processor 77 = 31
    Number of faces shared with processor 107 = 237
    Number of faces shared with processor 620 = 2135
    Number of faces shared with processor 109 = 660
    Number of processor patches = 7
    Number of processor faces = 6250
    Number of boundary faces = 882

Processor 109
    Number of cells = 29516
    Number of points = 34158
    Number of faces shared with processor 140 = 3
    Number of faces shared with processor 141 = 1429
    Number of faces shared with processor 77 = 1376
    Number of faces shared with processor 78 = 523
    Number of faces shared with processor 108 = 660
    Number of faces shared with processor 620 = 42
    Number of faces shared with processor 621 = 2241
    Number of faces shared with processor 110 = 146
    Number of processor patches = 8
    Number of processor faces = 6420
    Number of boundary faces = 871

Processor 110
    Number of cells = 29516
    Number of points = 39272
    Number of faces shared with processor 653 = 65
    Number of faces shared with processor 141 = 295
    Number of faces shared with processor 654 = 559
    Number of faces shared with processor 142 = 1046
    Number of faces shared with processor 655 = 2
    Number of faces shared with processor 143 = 9
    Number of faces shared with processor 78 = 1521
    Number of faces shared with processor 590 = 782
    Number of faces shared with processor 1133 = 5
    Number of faces shared with processor 621 = 68
    Number of faces shared with processor 109 = 146
    Number of faces shared with processor 622 = 5489
    Number of faces shared with processor 623 = 164
    Number of faces shared with processor 111 = 516
    Number of processor patches = 14
    Number of processor faces = 10667
    Number of boundary faces = 409

Processor 111
    Number of cells = 29516
    Number of points = 36061
    Number of faces shared with processor 143 = 743
    Number of faces shared with processor 144 = 307
    Number of faces shared with processor 590 = 1
    Number of faces shared with processor 78 = 303
    Number of faces shared with processor 79 = 1482
    Number of faces shared with processor 110 = 516
    Number of faces shared with processor 623 = 3746
    Number of faces shared with processor 624 = 2
    Number of faces shared with processor 112 = 405
    Number of processor patches = 9
    Number of processor faces = 7505
    Number of boundary faces = 768

Processor 112
    Number of cells = 29516
    Number of points = 33875
    Number of faces shared with processor 144 = 1448
    Number of faces shared with processor 79 = 292
    Number of faces shared with processor 80 = 1417
    Number of faces shared with processor 81 = 419
    Number of faces shared with processor 111 = 405
    Number of faces shared with processor 624 = 2055
    Number of faces shared with processor 113 = 288
    Number of processor patches = 7
    Number of processor faces = 6324
    Number of boundary faces = 860

Processor 113
    Number of cells = 29516
    Number of points = 35956
    Number of faces shared with processor 144 = 151
    Number of faces shared with processor 145 = 1386
    Number of faces shared with processor 81 = 1410
    Number of faces shared with processor 594 = 177
    Number of faces shared with processor 82 = 41
    Number of faces shared with processor 112 = 288
    Number of faces shared with processor 624 = 64
    Number of faces shared with processor 625 = 790
    Number of faces shared with processor 626 = 580
    Number of faces shared with processor 114 = 234
    Number of processor patches = 10
    Number of processor faces = 5121
    Number of boundary faces = 2322

Processor 114
    Number of cells = 29516
    Number of points = 36282
    Number of faces shared with processor 145 = 3
[...]
Processor 3452: field transfer
Processor 3453: field transfer
Processor 3454: field transfer
Processor 3455: field transfer
Processor 3456: field transfer
Processor 3457: field transfer
Processor 3458: field transfer
Processor 3459: field transfer
Processor 3460: field transfer
Processor 3461: field transfer
Processor 3462: field transfer
Processor 3463: field transfer
Processor 3464: field transfer
Processor 3465: field transfer
Processor 3466: field transfer
Processor 3467: field transfer
Processor 3468: field transfer
Processor 3469: field transfer
Processor 3470: field transfer
Processor 3471: field transfer
Processor 3472: field transfer
Processor 3473: field transfer
Processor 3474: field transfer
Processor 3475: field transfer
Processor 3476: field transfer
Processor 3477: field transfer
Processor 3478: field transfer
Processor 3479: field transfer
Processor 3480: field transfer
Processor 3481: field transfer
Processor 3482: field transfer
Processor 3483: field transfer
Processor 3484: field transfer
Processor 3485: field transfer
Processor 3486: field transfer
Processor 3487: field transfer
Processor 3488: field transfer
Processor 3489: field transfer
Processor 3490: field transfer
Processor 3491: field transfer
Processor 3492: field transfer
Processor 3493: field transfer
Processor 3494: field transfer
Processor 3495: field transfer
Processor 3496: field transfer
Processor 3497: field transfer
Processor 3498: field transfer
Processor 3499: field transfer
Processor 3500: field transfer
Processor 3501: field transfer
Processor 3502: field transfer
Processor 3503: field transfer
Processor 3504: field transfer
Processor 3505: field transfer
Processor 3506: field transfer
Processor 3507: field transfer
Processor 3508: field transfer
Processor 3509: field transfer
Processor 3510: field transfer
Processor 3511: field transfer
Processor 3512: field transfer
Processor 3513: field transfer
Processor 3514: field transfer
Processor 3515: field transfer
Processor 3516: field transfer
Processor 3517: field transfer
Processor 3518: field transfer
Processor 3519: field transfer
Processor 3520: field transfer
Processor 3521: field transfer
Processor 3522: field transfer
Processor 3523: field transfer
Processor 3524: field transfer
Processor 3525: field transfer
Processor 3526: field transfer
Processor 3527: field transfer
Processor 3528: field transfer
Processor 3529: field transfer
Processor 3530: field transfer
Processor 3531: field transfer
Processor 3532: field transfer
Processor 3533: field transfer
Processor 3534: field transfer
Processor 3535: field transfer
Processor 3536: field transfer
Processor 3537: field transfer
Processor 3538: field transfer
Processor 3539: field transfer
Processor 3540: field transfer
Processor 3541: field transfer
Processor 3542: field transfer
Processor 3543: field transfer
Processor 3544: field transfer
Processor 3545: field transfer
Processor 3546: field transfer
Processor 3547: field transfer
Processor 3548: field transfer
Processor 3549: field transfer
Processor 3550: field transfer
Processor 3551: field transfer
Processor 3552: field transfer
Processor 3553: field transfer
Processor 3554: field transfer
Processor 3555: field transfer
Processor 3556: field transfer
Processor 3557: field transfer
Processor 3558: field transfer
Processor 3559: field transfer
Processor 3560: field transfer
Processor 3561: field transfer
Processor 3562: field transfer
Processor 3563: field transfer
Processor 3564: field transfer
Processor 3565: field transfer
Processor 3566: field transfer
Processor 3567: field transfer
Processor 3568: field transfer
Processor 3569: field transfer
Processor 3570: field transfer
Processor 3571: field transfer
Processor 3572: field transfer
Processor 3573: field transfer
Processor 3574: field transfer
Processor 3575: field transfer
Processor 3576: field transfer
Processor 3577: field transfer
Processor 3578: field transfer
Processor 3579: field transfer
Processor 3580: field transfer
Processor 3581: field transfer
Processor 3582: field transfer
Processor 3583: field transfer
Processor 3584: field transfer
Processor 3585: field transfer
Processor 3586: field transfer
Processor 3587: field transfer
Processor 3588: field transfer
Processor 3589: field transfer
Processor 3590: field transfer
Processor 3591: field transfer
Processor 3592: field transfer
Processor 3593: field transfer
Processor 3594: field transfer
Processor 3595: field transfer
Processor 3596: field transfer
Processor 3597: field transfer
Processor 3598: field transfer
Processor 3599: field transfer
Processor 3600: field transfer
Processor 3601: field transfer
Processor 3602: field transfer
Processor 3603: field transfer
Processor 3604: field transfer
Processor 3605: field transfer
Processor 3606: field transfer
Processor 3607: field transfer
Processor 3608: field transfer
Processor 3609: field transfer
Processor 3610: field transfer
Processor 3611: field transfer
Processor 3612: field transfer
Processor 3613: field transfer
Processor 3614: field transfer
Processor 3615: field transfer
Processor 3616: field transfer
Processor 3617: field transfer
Processor 3618: field transfer
Processor 3619: field transfer
Processor 3620: field transfer
Processor 3621: field transfer
Processor 3622: field transfer
Processor 3623: field transfer
Processor 3624: field transfer
Processor 3625: field transfer
Processor 3626: field transfer
Processor 3627: field transfer
Processor 3628: field transfer
Processor 3629: field transfer
Processor 3630: field transfer
Processor 3631: field transfer
Processor 3632: field transfer
Processor 3633: field transfer
Processor 3634: field transfer
Processor 3635: field transfer
Processor 3636: field transfer
Processor 3637: field transfer
Processor 3638: field transfer
Processor 3639: field transfer
Processor 3640: field transfer
Processor 3641: field transfer
Processor 3642: field transfer
Processor 3643: field transfer
Processor 3644: field transfer
Processor 3645: field transfer
Processor 3646: field transfer
Processor 3647: field transfer
Processor 3648: field transfer
Processor 3649: field transfer
Processor 3650: field transfer
Processor 3651: field transfer
Processor 3652: field transfer
Processor 3653: field transfer
Processor 3654: field transfer
Processor 3655: field transfer
Processor 3656: field transfer
Processor 3657: field transfer
Processor 3658: field transfer
Processor 3659: field transfer
Processor 3660: field transfer
Processor 3661: field transfer
Processor 3662: field transfer
Processor 3663: field transfer
Processor 3664: field transfer
Processor 3665: field transfer
Processor 3666: field transfer
Processor 3667: field transfer
Processor 3668: field transfer
Processor 3669: field transfer
Processor 3670: field transfer
Processor 3671: field transfer
Processor 3672: field transfer
Processor 3673: field transfer
Processor 3674: field transfer
Processor 3675: field transfer
Processor 3676: field transfer
Processor 3677: field transfer
Processor 3678: field transfer
Processor 3679: field transfer
Processor 3680: field transfer
Processor 3681: field transfer
Processor 3682: field transfer
Processor 3683: field transfer
Processor 3684: field transfer
Processor 3685: field transfer
Processor 3686: field transfer
Processor 3687: field transfer
Processor 3688: field transfer
Processor 3689: field transfer
Processor 3690: field transfer
Processor 3691: field transfer
Processor 3692: field transfer
Processor 3693: field transfer
Processor 3694: field transfer
Processor 3695: field transfer
Processor 3696: field transfer
Processor 3697: field transfer
Processor 3698: field transfer
Processor 3699: field transfer
Processor 3700: field transfer
Processor 3701: field transfer
Processor 3702: field transfer
Processor 3703: field transfer
Processor 3704: field transfer
Processor 3705: field transfer
Processor 3706: field transfer
Processor 3707: field transfer
Processor 3708: field transfer
Processor 3709: field transfer
Processor 3710: field transfer
Processor 3711: field transfer
Processor 3712: field transfer
Processor 3713: field transfer
Processor 3714: field transfer
Processor 3715: field transfer
Processor 3716: field transfer
Processor 3717: field transfer
Processor 3718: field transfer
Processor 3719: field transfer
Processor 3720: field transfer
Processor 3721: field transfer
Processor 3722: field transfer
Processor 3723: field transfer
Processor 3724: field transfer
Processor 3725: field transfer
Processor 3726: field transfer
Processor 3727: field transfer
Processor 3728: field transfer
Processor 3729: field transfer
Processor 3730: field transfer
Processor 3731: field transfer
Processor 3732: field transfer
Processor 3733: field transfer
Processor 3734: field transfer
Processor 3735: field transfer
Processor 3736: field transfer
Processor 3737: field transfer
Processor 3738: field transfer
Processor 3739: field transfer
Processor 3740: field transfer
Processor 3741: field transfer
Processor 3742: field transfer
Processor 3743: field transfer
Processor 3744: field transfer
Processor 3745: field transfer
Processor 3746: field transfer
Processor 3747: field transfer
Processor 3748: field transfer
Processor 3749: field transfer
Processor 3750: field transfer
Processor 3751: field transfer
Processor 3752: field transfer
Processor 3753: field transfer
Processor 3754: field transfer
Processor 3755: field transfer
Processor 3756: field transfer
Processor 3757: field transfer
Processor 3758: field transfer
Processor 3759: field transfer
Processor 3760: field transfer
Processor 3761: field transfer
Processor 3762: field transfer
Processor 3763: field transfer
Processor 3764: field transfer
Processor 3765: field transfer
Processor 3766: field transfer
Processor 3767: field transfer
Processor 3768: field transfer
Processor 3769: field transfer
Processor 3770: field transfer
Processor 3771: field transfer
Processor 3772: field transfer
Processor 3773: field transfer
Processor 3774: field transfer
Processor 3775: field transfer
Processor 3776: field transfer
Processor 3777: field transfer
Processor 3778: field transfer
Processor 3779: field transfer
Processor 3780: field transfer
Processor 3781: field transfer
Processor 3782: field transfer
Processor 3783: field transfer
Processor 3784: field transfer
Processor 3785: field transfer
Processor 3786: field transfer
Processor 3787: field transfer
Processor 3788: field transfer
Processor 3789: field transfer
Processor 3790: field transfer
Processor 3791: field transfer
Processor 3792: field transfer
Processor 3793: field transfer
Processor 3794: field transfer
Processor 3795: field transfer
Processor 3796: field transfer
Processor 3797: field transfer
Processor 3798: field transfer
Processor 3799: field transfer
Processor 3800: field transfer
Processor 3801: field transfer
Processor 3802: field transfer
Processor 3803: field transfer
Processor 3804: field transfer
Processor 3805: field transfer
Processor 3806: field transfer
Processor 3807: field transfer
Processor 3808: field transfer
Processor 3809: field transfer
Processor 3810: field transfer
Processor 3811: field transfer
Processor 3812: field transfer
Processor 3813: field transfer
Processor 3814: field transfer
Processor 3815: field transfer
Processor 3816: field transfer
Processor 3817: field transfer
Processor 3818: field transfer
Processor 3819: field transfer
Processor 3820: field transfer
Processor 3821: field transfer
Processor 3822: field transfer
Processor 3823: field transfer
Processor 3824: field transfer
Processor 3825: field transfer
Processor 3826: field transfer
Processor 3827: field transfer
Processor 3828: field transfer
Processor 3829: field transfer
Processor 3830: field transfer
Processor 3831: field transfer
Processor 3832: field transfer
Processor 3833: field transfer
Processor 3834: field transfer
Processor 3835: field transfer
Processor 3836: field transfer
Processor 3837: field transfer
Processor 3838: field transfer
Processor 3839: field transfer
Processor 3840: field transfer
Processor 3841: field transfer
Processor 3842: field transfer
Processor 3843: field transfer
Processor 3844: field transfer
Processor 3845: field transfer
Processor 3846: field transfer
Processor 3847: field transfer
Processor 3848: field transfer
Processor 3849: field transfer
Processor 3850: field transfer
Processor 3851: field transfer
Processor 3852: field transfer
Processor 3853: field transfer
Processor 3854: field transfer
Processor 3855: field transfer
Processor 3856: field transfer
Processor 3857: field transfer
Processor 3858: field transfer
Processor 3859: field transfer
Processor 3860: field transfer
Processor 3861: field transfer
Processor 3862: field transfer
Processor 3863: field transfer
Processor 3864: field transfer
Processor 3865: field transfer
Processor 3866: field transfer
Processor 3867: field transfer
Processor 3868: field transfer
Processor 3869: field transfer
Processor 3870: field transfer
Processor 3871: field transfer
Processor 3872: field transfer
Processor 3873: field transfer
Processor 3874: field transfer
Processor 3875: field transfer
Processor 3876: field transfer
Processor 3877: field transfer
Processor 3878: field transfer
Processor 3879: field transfer
Processor 3880: field transfer
Processor 3881: field transfer
Processor 3882: field transfer
Processor 3883: field transfer
Processor 3884: field transfer
Processor 3885: field transfer
Processor 3886: field transfer
Processor 3887: field transfer
Processor 3888: field transfer
Processor 3889: field transfer
Processor 3890: field transfer
Processor 3891: field transfer
Processor 3892: field transfer
Processor 3893: field transfer
Processor 3894: field transfer
Processor 3895: field transfer
Processor 3896: field transfer
Processor 3897: field transfer
Processor 3898: field transfer
Processor 3899: field transfer
Processor 3900: field transfer
Processor 3901: field transfer
Processor 3902: field transfer
Processor 3903: field transfer
Processor 3904: field transfer
Processor 3905: field transfer
Processor 3906: field transfer
Processor 3907: field transfer
Processor 3908: field transfer
Processor 3909: field transfer
Processor 3910: field transfer
Processor 3911: field transfer
Processor 3912: field transfer
Processor 3913: field transfer
Processor 3914: field transfer
Processor 3915: field transfer
Processor 3916: field transfer
Processor 3917: field transfer
Processor 3918: field transfer
Processor 3919: field transfer
Processor 3920: field transfer
Processor 3921: field transfer
Processor 3922: field transfer
Processor 3923: field transfer
Processor 3924: field transfer
Processor 3925: field transfer
Processor 3926: field transfer
Processor 3927: field transfer
Processor 3928: field transfer
Processor 3929: field transfer
Processor 3930: field transfer
Processor 3931: field transfer
Processor 3932: field transfer
Processor 3933: field transfer
Processor 3934: field transfer
Processor 3935: field transfer
Processor 3936: field transfer
Processor 3937: field transfer
Processor 3938: field transfer
Processor 3939: field transfer
Processor 3940: field transfer
Processor 3941: field transfer
Processor 3942: field transfer
Processor 3943: field transfer
Processor 3944: field transfer
Processor 3945: field transfer
Processor 3946: field transfer
Processor 3947: field transfer
Processor 3948: field transfer
Processor 3949: field transfer
Processor 3950: field transfer
Processor 3951: field transfer
Processor 3952: field transfer
Processor 3953: field transfer
Processor 3954: field transfer
Processor 3955: field transfer
Processor 3956: field transfer
Processor 3957: field transfer
Processor 3958: field transfer
Processor 3959: field transfer
Processor 3960: field transfer
Processor 3961: field transfer
Processor 3962: field transfer
Processor 3963: field transfer
Processor 3964: field transfer
Processor 3965: field transfer
Processor 3966: field transfer
Processor 3967: field transfer
Processor 3968: field transfer
Processor 3969: field transfer
Processor 3970: field transfer
Processor 3971: field transfer
Processor 3972: field transfer
Processor 3973: field transfer
Processor 3974: field transfer
Processor 3975: field transfer
Processor 3976: field transfer
Processor 3977: field transfer
Processor 3978: field transfer
Processor 3979: field transfer
Processor 3980: field transfer
Processor 3981: field transfer
Processor 3982: field transfer
Processor 3983: field transfer
Processor 3984: field transfer
Processor 3985: field transfer
Processor 3986: field transfer
Processor 3987: field transfer
Processor 3988: field transfer
Processor 3989: field transfer
Processor 3990: field transfer
Processor 3991: field transfer
Processor 3992: field transfer
Processor 3993: field transfer
Processor 3994: field transfer
Processor 3995: field transfer
Processor 3996: field transfer
Processor 3997: field transfer
Processor 3998: field transfer
Processor 3999: field transfer
Processor 4000: field transfer
Processor 4001: field transfer
Processor 4002: field transfer
Processor 4003: field transfer
Processor 4004: field transfer
Processor 4005: field transfer
Processor 4006: field transfer
Processor 4007: field transfer
Processor 4008: field transfer
Processor 4009: field transfer
Processor 4010: field transfer
Processor 4011: field transfer
Processor 4012: field transfer
Processor 4013: field transfer
Processor 4014: field transfer
Processor 4015: field transfer
Processor 4016: field transfer
Processor 4017: field transfer
Processor 4018: field transfer
Processor 4019: field transfer
Processor 4020: field transfer
Processor 4021: field transfer
Processor 4022: field transfer
Processor 4023: field transfer
Processor 4024: field transfer
Processor 4025: field transfer
Processor 4026: field transfer
Processor 4027: field transfer
Processor 4028: field transfer
Processor 4029: field transfer
Processor 4030: field transfer
Processor 4031: field transfer
Processor 4032: field transfer
Processor 4033: field transfer
Processor 4034: field transfer
Processor 4035: field transfer
Processor 4036: field transfer
Processor 4037: field transfer
Processor 4038: field transfer
Processor 4039: field transfer
Processor 4040: field transfer
Processor 4041: field transfer
Processor 4042: field transfer
Processor 4043: field transfer
Processor 4044: field transfer
Processor 4045: field transfer
Processor 4046: field transfer
Processor 4047: field transfer
Processor 4048: field transfer
Processor 4049: field transfer
Processor 4050: field transfer
Processor 4051: field transfer
Processor 4052: field transfer
Processor 4053: field transfer
Processor 4054: field transfer
Processor 4055: field transfer
Processor 4056: field transfer
Processor 4057: field transfer
Processor 4058: field transfer
Processor 4059: field transfer
Processor 4060: field transfer
Processor 4061: field transfer
Processor 4062: field transfer
Processor 4063: field transfer
Processor 4064: field transfer
Processor 4065: field transfer
Processor 4066: field transfer
Processor 4067: field transfer
Processor 4068: field transfer
Processor 4069: field transfer
Processor 4070: field transfer
Processor 4071: field transfer
Processor 4072: field transfer
Processor 4073: field transfer
Processor 4074: field transfer
Processor 4075: field transfer
Processor 4076: field transfer
Processor 4077: field transfer
Processor 4078: field transfer
Processor 4079: field transfer
Processor 4080: field transfer
Processor 4081: field transfer
Processor 4082: field transfer
Processor 4083: field transfer
Processor 4084: field transfer
Processor 4085: field transfer
Processor 4086: field transfer
Processor 4087: field transfer
Processor 4088: field transfer
Processor 4089: field transfer
Processor 4090: field transfer
Processor 4091: field transfer
Processor 4092: field transfer
Processor 4093: field transfer
Processor 4094: field transfer
Processor 4095: field transfer

End

