/*---------------------------------------------------------------------------*\
| =========                 |                                                 |
| \\      /  F ield         | OpenFOAM: The Open Source CFD Toolbox           |
|  \\    /   O peration     | Version:  2412                                  |
|   \\  /    A nd           | Website:  www.openfoam.com                      |
|    \\/     M anipulation  |                                                 |
\*---------------------------------------------------------------------------*/
Build  : _8dbc61e11c-20241220 OPENFOAM=2412 version=v2412
Arch   : "LSB;label=32;scalar=64"
Exec   : decomposePar -constant
Date   : Jun 03 2025
Time   : 21:14:12
Host   : mnode024
PID    : 10523
I/O    : uncollated
Case   : /mosella/w5/schulzel/hpc/incompressible/simpleFoam/occDrivAerStaticMesh_c_1536
nProcs : 1
trapFpe: Floating point exception trapping enabled (FOAM_SIGFPE).
fileModificationChecking : Monitoring run-time modified files using timeStampMaster (fileModificationSkew 5, maxFileModificationPolls 20)
allowSystemOperations : Allowing user-supplied system call operations

// * * * * * * * * * * * * * * * * * * * * * * * * * * * * * * * * * * * * * //
Create time



Decomposing mesh

Create mesh

Calculating distribution of cells
Decomposition method hierarchical [1536] (region region0)

Finished decomposition in 46.86 s

Calculating original mesh data

Distributing cells to processors

Distributing faces to processors

Distributing points to processors

Constructing processor meshes

Processor 0
    Number of cells = 42535
    Number of points = 58662
    Number of faces shared with processor 384 = 15592
    Number of faces shared with processor 1 = 342
    Number of faces shared with processor 24 = 361
    Number of processor patches = 3
    Number of processor faces = 16295
    Number of boundary faces = 15087

Processor 1
    Number of cells = 42535
    Number of points = 49213
    Number of faces shared with processor 0 = 342
    Number of faces shared with processor 384 = 359
    Number of faces shared with processor 768 = 816
    Number of faces shared with processor 769 = 2
    Number of faces shared with processor 385 = 1670
    Number of faces shared with processor 2 = 1892
    Number of faces shared with processor 4 = 2
    Number of faces shared with processor 24 = 17
    Number of faces shared with processor 25 = 1198
    Number of processor patches = 9
    Number of processor faces = 6298
    Number of boundary faces = 3293

Processor 2
    Number of cells = 42535
    Number of points = 52692
    Number of faces shared with processor 385 = 183
    Number of faces shared with processor 1 = 1892
    Number of faces shared with processor 386 = 1035
    Number of faces shared with processor 387 = 355
    Number of faces shared with processor 3 = 2438
    Number of faces shared with processor 4 = 3
    Number of faces shared with processor 25 = 252
    Number of faces shared with processor 26 = 2492
    Number of processor patches = 8
    Number of processor faces = 8650
    Number of boundary faces = 3622

Processor 3
    Number of cells = 42535
    Number of points = 51516
    Number of faces shared with processor 386 = 2
    Number of faces shared with processor 2 = 2438
    Number of faces shared with processor 387 = 1141
    Number of faces shared with processor 4 = 2268
    Number of faces shared with processor 26 = 174
    Number of faces shared with processor 27 = 580
    Number of faces shared with processor 28 = 337
    Number of processor patches = 7
    Number of processor faces = 6940
    Number of boundary faces = 4978

Processor 4
    Number of cells = 42535
    Number of points = 51879
    Number of faces shared with processor 385 = 1
    Number of faces shared with processor 1 = 2
    Number of faces shared with processor 2 = 3
    Number of faces shared with processor 387 = 425
    Number of faces shared with processor 3 = 2268
    Number of faces shared with processor 772 = 3
    Number of faces shared with processor 388 = 1153
    Number of faces shared with processor 389 = 17
    Number of faces shared with processor 5 = 2316
    Number of faces shared with processor 6 = 3
    Number of faces shared with processor 28 = 3299
    Number of faces shared with processor 29 = 197
    Number of processor patches = 12
    Number of processor faces = 9687
    Number of boundary faces = 2916

Processor 5
    Number of cells = 42535
    Number of points = 48996
    Number of faces shared with processor 4 = 2316
    Number of faces shared with processor 389 = 1362
    Number of faces shared with processor 390 = 85
    Number of faces shared with processor 6 = 2049
    Number of faces shared with processor 29 = 1291
    Number of faces shared with processor 30 = 39
    Number of processor patches = 6
    Number of processor faces = 7142
    Number of boundary faces = 2653

Processor 6
    Number of cells = 42535
    Number of points = 48999
    Number of faces shared with processor 4 = 3
    Number of faces shared with processor 389 = 1
    Number of faces shared with processor 5 = 2049
    Number of faces shared with processor 390 = 1381
    Number of faces shared with processor 774 = 3
    Number of faces shared with processor 7 = 1555
    Number of faces shared with processor 8 = 3
    Number of faces shared with processor 30 = 1336
    Number of faces shared with processor 31 = 509
    Number of processor patches = 9
    Number of processor faces = 6840
    Number of boundary faces = 2794

Processor 7
    Number of cells = 42535
    Number of points = 48830
    Number of faces shared with processor 390 = 256
    Number of faces shared with processor 6 = 1555
    Number of faces shared with processor 391 = 1110
    Number of faces shared with processor 392 = 228
    Number of faces shared with processor 8 = 2168
    Number of faces shared with processor 31 = 1405
    Number of faces shared with processor 32 = 81
    Number of processor patches = 7
    Number of processor faces = 6803
    Number of boundary faces = 2299

Processor 8
    Number of cells = 42535
    Number of points = 48870
    Number of faces shared with processor 6 = 3
    Number of faces shared with processor 7 = 2168
    Number of faces shared with processor 392 = 1263
    Number of faces shared with processor 9 = 1864
    Number of faces shared with processor 393 = 70
    Number of faces shared with processor 10 = 3
    Number of faces shared with processor 32 = 1394
    Number of faces shared with processor 33 = 82
    Number of processor patches = 8
    Number of processor faces = 6847
    Number of boundary faces = 2555

Processor 9
    Number of cells = 42535
    Number of points = 48963
    Number of faces shared with processor 392 = 3
    Number of faces shared with processor 8 = 1864
    Number of faces shared with processor 393 = 1289
    Number of faces shared with processor 394 = 1
    Number of faces shared with processor 10 = 2076
    Number of faces shared with processor 33 = 1507
    Number of processor patches = 6
    Number of processor faces = 6740
    Number of boundary faces = 2785

Processor 10
    Number of cells = 42535
    Number of points = 49026
    Number of faces shared with processor 8 = 3
    Number of faces shared with processor 9 = 2076
    Number of faces shared with processor 393 = 23
    Number of faces shared with processor 778 = 1
    Number of faces shared with processor 394 = 1292
    Number of faces shared with processor 11 = 2045
    Number of faces shared with processor 12 = 3
    Number of faces shared with processor 34 = 1443
    Number of processor patches = 8
    Number of processor faces = 6886
    Number of boundary faces = 2689

Processor 11
    Number of cells = 42535
    Number of points = 48850
    Number of faces shared with processor 10 = 2045
    Number of faces shared with processor 394 = 63
    Number of faces shared with processor 395 = 1261
    Number of faces shared with processor 396 = 29
    Number of faces shared with processor 12 = 1979
    Number of faces shared with processor 34 = 41
    Number of faces shared with processor 35 = 1424
    Number of faces shared with processor 36 = 80
    Number of processor patches = 8
    Number of processor faces = 6922
    Number of boundary faces = 2571

Processor 12
    Number of cells = 42535
    Number of points = 48984
    Number of faces shared with processor 10 = 3
    Number of faces shared with processor 395 = 1
    Number of faces shared with processor 11 = 1979
    Number of faces shared with processor 396 = 1281
    Number of faces shared with processor 13 = 2051
    Number of faces shared with processor 397 = 1
    Number of faces shared with processor 14 = 3
    Number of faces shared with processor 15 = 3
    Number of faces shared with processor 36 = 1468
    Number of processor patches = 9
    Number of processor faces = 6790
    Number of boundary faces = 2774

Processor 13
    Number of cells = 42535
    Number of points = 48669
    Number of faces shared with processor 12 = 2051
    Number of faces shared with processor 396 = 319
    Number of faces shared with processor 397 = 1060
    Number of faces shared with processor 14 = 2973
    Number of faces shared with processor 36 = 624
    Number of faces shared with processor 37 = 1056
    Number of processor patches = 6
    Number of processor faces = 8083
    Number of boundary faces = 1805

Processor 14
    Number of cells = 42535
    Number of points = 50335
    Number of faces shared with processor 12 = 3
    Number of faces shared with processor 396 = 3
    Number of faces shared with processor 397 = 204
    Number of faces shared with processor 13 = 2973
    Number of faces shared with processor 398 = 896
    Number of faces shared with processor 399 = 16
    Number of faces shared with processor 15 = 3442
    Number of faces shared with processor 16 = 6
    Number of faces shared with processor 37 = 432
    Number of faces shared with processor 422 = 135
    Number of faces shared with processor 38 = 2275
    Number of processor patches = 11
    Number of processor faces = 10385
    Number of boundary faces = 1599

Processor 15
    Number of cells = 42535
    Number of points = 50567
    Number of faces shared with processor 12 = 3
    Number of faces shared with processor 397 = 1
    Number of faces shared with processor 14 = 3442
    Number of faces shared with processor 399 = 854
    Number of faces shared with processor 400 = 30
    Number of faces shared with processor 16 = 3450
    Number of faces shared with processor 18 = 3
    Number of faces shared with processor 422 = 3
    Number of faces shared with processor 38 = 136
    Number of faces shared with processor 423 = 262
    Number of faces shared with processor 39 = 2331
    Number of faces shared with processor 424 = 2
    Number of faces shared with processor 40 = 161
    Number of processor patches = 13
    Number of processor faces = 10678
    Number of boundary faces = 1434

Processor 16
    Number of cells = 42535
    Number of points = 49974
    Number of faces shared with processor 14 = 6
    Number of faces shared with processor 399 = 2
    Number of faces shared with processor 15 = 3450
    Number of faces shared with processor 400 = 918
    Number of faces shared with processor 401 = 152
    Number of faces shared with processor 17 = 2706
    Number of faces shared with processor 424 = 24
    Number of faces shared with processor 40 = 2055
    Number of faces shared with processor 41 = 497
    Number of processor patches = 9
    Number of processor faces = 9810
    Number of boundary faces = 1619

Processor 17
    Number of cells = 42535
    Number of points = 48576
    Number of faces shared with processor 16 = 2706
    Number of faces shared with processor 401 = 1052
    Number of faces shared with processor 402 = 235
    Number of faces shared with processor 18 = 2039
    Number of faces shared with processor 41 = 1081
    Number of faces shared with processor 42 = 564
    Number of processor patches = 6
    Number of processor faces = 7677
    Number of boundary faces = 1939

Processor 18
    Number of cells = 42535
    Number of points = 48959
    Number of faces shared with processor 15 = 3
    Number of faces shared with processor 17 = 2039
    Number of faces shared with processor 402 = 1263
    Number of faces shared with processor 19 = 2002
    Number of faces shared with processor 403 = 1
    Number of faces shared with processor 404 = 3
    Number of faces shared with processor 42 = 1472
    Number of processor patches = 7
    Number of processor faces = 6783
    Number of boundary faces = 2704

Processor 19
    Number of cells = 42535
    Number of points = 48749
    Number of faces shared with processor 402 = 65
    Number of faces shared with processor 18 = 2002
    Number of faces shared with processor 403 = 1230
    Number of faces shared with processor 20 = 1509
    Number of faces shared with processor 404 = 415
    Number of faces shared with processor 42 = 126
    Number of faces shared with processor 43 = 1380
    Number of faces shared with processor 44 = 205
    Number of processor patches = 8
    Number of processor faces = 6932
    Number of boundary faces = 2453

Processor 20
    Number of cells = 42535
    Number of points = 49243
    Number of faces shared with processor 19 = 1509
    Number of faces shared with processor 404 = 1997
    Number of faces shared with processor 21 = 430
    Number of faces shared with processor 789 = 134
    Number of faces shared with processor 405 = 680
    Number of faces shared with processor 44 = 1250
    Number of faces shared with processor 45 = 144
    Number of processor patches = 7
    Number of processor faces = 6144
    Number of boundary faces = 3689

Processor 21
    Number of cells = 42535
    Number of points = 54903
    Number of faces shared with processor 20 = 430
    Number of faces shared with processor 405 = 11501
    Number of faces shared with processor 22 = 274
    Number of faces shared with processor 406 = 69
    Number of faces shared with processor 45 = 414
    Number of faces shared with processor 46 = 64
    Number of processor patches = 6
    Number of processor faces = 12752
    Number of boundary faces = 11303

Processor 22
    Number of cells = 42535
    Number of points = 62524
    Number of faces shared with processor 21 = 274
    Number of faces shared with processor 406 = 19397
    Number of faces shared with processor 23 = 46
    Number of faces shared with processor 46 = 540
    Number of faces shared with processor 47 = 56
    Number of faces shared with processor 71 = 50
    Number of faces shared with processor 95 = 36
    Number of processor patches = 7
    Number of processor faces = 20399
    Number of boundary faces = 18689

Processor 23
    Number of cells = 42535
    Number of points = 63901
    Number of faces shared with processor 406 = 29
    Number of faces shared with processor 22 = 46
    Number of faces shared with processor 791 = 130
    Number of faces shared with processor 407 = 19624
    Number of faces shared with processor 431 = 441
    Number of faces shared with processor 47 = 1481
    Number of processor patches = 6
    Number of processor faces = 21751
    Number of boundary faces = 18242

Processor 24
    Number of cells = 42535
    Number of points = 52388
    Number of faces shared with processor 0 = 361
    Number of faces shared with processor 768 = 711
    Number of faces shared with processor 384 = 381
    Number of faces shared with processor 385 = 9
    Number of faces shared with processor 1 = 17
    Number of faces shared with processor 792 = 6
    Number of faces shared with processor 408 = 1478
    Number of faces shared with processor 25 = 156
    Number of faces shared with processor 432 = 17
    Number of faces shared with processor 48 = 2392
    Number of faces shared with processor 433 = 166
    Number of faces shared with processor 49 = 210
    Number of faces shared with processor 457 = 38
    Number of faces shared with processor 73 = 298
    Number of faces shared with processor 97 = 342
    Number of faces shared with processor 505 = 2
    Number of faces shared with processor 121 = 22
    Number of processor patches = 17
    Number of processor faces = 6606
    Number of boundary faces = 4076

Processor 25
    Number of cells = 42535
    Number of points = 55228
    Number of faces shared with processor 385 = 2015
    Number of faces shared with processor 1 = 1198
    Number of faces shared with processor 2 = 252
    Number of faces shared with processor 386 = 428
    Number of faces shared with processor 408 = 61
    Number of faces shared with processor 24 = 156
    Number of faces shared with processor 409 = 856
    Number of faces shared with processor 410 = 212
    Number of faces shared with processor 26 = 251
    Number of faces shared with processor 433 = 2032
    Number of faces shared with processor 49 = 3110
    Number of processor patches = 11
    Number of processor faces = 10571
    Number of boundary faces = 4434

Processor 26
    Number of cells = 42535
    Number of points = 56725
    Number of faces shared with processor 2 = 2492
    Number of faces shared with processor 386 = 1826
    Number of faces shared with processor 3 = 174
    Number of faces shared with processor 387 = 223
    Number of faces shared with processor 25 = 251
    Number of faces shared with processor 410 = 603
    Number of faces shared with processor 27 = 587
    Number of faces shared with processor 411 = 215
    Number of faces shared with processor 49 = 74
    Number of faces shared with processor 434 = 324
    Number of faces shared with processor 50 = 2700
    Number of processor patches = 11
    Number of processor faces = 9469
    Number of boundary faces = 6169

Processor 27
    Number of cells = 42535
    Number of points = 53110
    Number of faces shared with processor 3 = 580
    Number of faces shared with processor 387 = 1176
    Number of faces shared with processor 26 = 587
    Number of faces shared with processor 411 = 630
    Number of faces shared with processor 28 = 359
    Number of faces shared with processor 50 = 201
    Number of faces shared with processor 51 = 1842
    Number of faces shared with processor 435 = 2295
    Number of faces shared with processor 52 = 233
    Number of processor patches = 9
    Number of processor faces = 7903
    Number of boundary faces = 8005

Processor 28
    Number of cells = 42535
    Number of points = 56703
    Number of faces shared with processor 387 = 65
    Number of faces shared with processor 3 = 337
    Number of faces shared with processor 388 = 968
    Number of faces shared with processor 4 = 3299
    Number of faces shared with processor 411 = 61
    Number of faces shared with processor 27 = 359
    Number of faces shared with processor 412 = 713
    Number of faces shared with processor 29 = 471
    Number of faces shared with processor 436 = 300
    Number of faces shared with processor 52 = 2307
    Number of processor patches = 10
    Number of processor faces = 8880
    Number of boundary faces = 5820

Processor 29
    Number of cells = 42535
    Number of points = 52572
    Number of faces shared with processor 388 = 204
    Number of faces shared with processor 4 = 197
    Number of faces shared with processor 5 = 1291
    Number of faces shared with processor 389 = 586
    Number of faces shared with processor 28 = 471
    Number of faces shared with processor 413 = 869
    Number of faces shared with processor 414 = 66
    Number of faces shared with processor 30 = 628
    Number of faces shared with processor 52 = 114
    Number of faces shared with processor 437 = 1220
    Number of faces shared with processor 53 = 2115
    Number of processor patches = 11
    Number of processor faces = 7761
    Number of boundary faces = 4008

Processor 30
    Number of cells = 42535
    Number of points = 49125
    Number of faces shared with processor 5 = 39
    Number of faces shared with processor 389 = 12
    Number of faces shared with processor 6 = 1336
    Number of faces shared with processor 390 = 500
    Number of faces shared with processor 29 = 628
    Number of faces shared with processor 414 = 669
    Number of faces shared with processor 53 = 189
    Number of faces shared with processor 438 = 8
    Number of faces shared with processor 54 = 2012
    Number of faces shared with processor 55 = 728
    Number of faces shared with processor 463 = 1
    Number of faces shared with processor 79 = 133
    Number of processor patches = 12
    Number of processor faces = 6255
    Number of boundary faces = 3263

Processor 31
    Number of cells = 42535
    Number of points = 49862
    Number of faces shared with processor 6 = 509
    Number of faces shared with processor 390 = 663
    Number of faces shared with processor 7 = 1405
    Number of faces shared with processor 391 = 997
    Number of faces shared with processor 415 = 672
    Number of faces shared with processor 416 = 251
    Number of faces shared with processor 32 = 1058
    Number of faces shared with processor 439 = 1764
    Number of faces shared with processor 55 = 3482
    Number of faces shared with processor 440 = 27
    Number of processor patches = 10
    Number of processor faces = 10828
    Number of boundary faces = 428

Processor 32
    Number of cells = 42535
    Number of points = 49242
    Number of faces shared with processor 7 = 81
    Number of faces shared with processor 391 = 23
    Number of faces shared with processor 8 = 1394
    Number of faces shared with processor 392 = 986
    Number of faces shared with processor 31 = 1058
    Number of faces shared with processor 416 = 815
    Number of faces shared with processor 33 = 1004
    Number of faces shared with processor 56 = 1394
    Number of faces shared with processor 440 = 3227
    Number of faces shared with processor 57 = 203
    Number of processor patches = 10
    Number of processor faces = 10185
    Number of boundary faces = 544

Processor 33
    Number of cells = 42535
    Number of points = 47988
    Number of faces shared with processor 8 = 82
    Number of faces shared with processor 392 = 62
    Number of faces shared with processor 9 = 1507
    Number of faces shared with processor 393 = 1197
    Number of faces shared with processor 394 = 25
    Number of faces shared with processor 416 = 35
    Number of faces shared with processor 32 = 1004
    Number of faces shared with processor 417 = 788
    Number of faces shared with processor 418 = 24
    Number of faces shared with processor 34 = 1062
    Number of faces shared with processor 57 = 3437
    Number of processor patches = 11
    Number of processor faces = 9223
    Number of boundary faces = 563

Processor 34
    Number of cells = 42535
    Number of points = 47965
    Number of faces shared with processor 10 = 1443
    Number of faces shared with processor 394 = 1137
    Number of faces shared with processor 11 = 41
    Number of faces shared with processor 395 = 28
    Number of faces shared with processor 33 = 1062
    Number of faces shared with processor 418 = 819
    Number of faces shared with processor 35 = 1055
    Number of faces shared with processor 57 = 106
    Number of faces shared with processor 442 = 1410
    Number of faces shared with processor 58 = 1961
    Number of processor patches = 10
    Number of processor faces = 9062
    Number of boundary faces = 592

Processor 35
    Number of cells = 42535
    Number of points = 48934
    Number of faces shared with processor 11 = 1424
    Number of faces shared with processor 395 = 1026
    Number of faces shared with processor 418 = 8
    Number of faces shared with processor 34 = 1055
    Number of faces shared with processor 419 = 722
    Number of faces shared with processor 420 = 52
    Number of faces shared with processor 36 = 1079
    Number of faces shared with processor 442 = 94
    Number of faces shared with processor 58 = 112
    Number of faces shared with processor 59 = 1505
    Number of faces shared with processor 443 = 2824
    Number of faces shared with processor 60 = 77
    Number of processor patches = 12
    Number of processor faces = 9978
    Number of boundary faces = 595

Processor 36
    Number of cells = 42535
    Number of points = 47019
    Number of faces shared with processor 11 = 80
    Number of faces shared with processor 395 = 54
    Number of faces shared with processor 12 = 1468
    Number of faces shared with processor 396 = 1028
    Number of faces shared with processor 13 = 624
    Number of faces shared with processor 397 = 263
    Number of faces shared with processor 35 = 1079
    Number of faces shared with processor 420 = 669
    Number of faces shared with processor 37 = 268
    Number of faces shared with processor 60 = 2491
    Number of processor patches = 10
    Number of processor faces = 8024
    Number of boundary faces = 615

Processor 37
    Number of cells = 42535
    Number of points = 51699
    Number of faces shared with processor 13 = 1056
    Number of faces shared with processor 397 = 418
    Number of faces shared with processor 398 = 70
    Number of faces shared with processor 14 = 432
    Number of faces shared with processor 36 = 268
    Number of faces shared with processor 421 = 542
    Number of faces shared with processor 422 = 620
    Number of faces shared with processor 38 = 888
    Number of faces shared with processor 60 = 340
    Number of faces shared with processor 445 = 587
    Number of faces shared with processor 61 = 1522
    Number of processor patches = 11
    Number of processor faces = 6743
    Number of boundary faces = 4598

Processor 38
    Number of cells = 42535
    Number of points = 54805
    Number of faces shared with processor 14 = 2275
    Number of faces shared with processor 15 = 136
    Number of faces shared with processor 37 = 888
    Number of faces shared with processor 422 = 629
    Number of faces shared with processor 39 = 1071
    Number of faces shared with processor 423 = 171
    Number of faces shared with processor 61 = 83
    Number of faces shared with processor 62 = 1897
    Number of processor patches = 8
    Number of processor faces = 7150
    Number of boundary faces = 5322

Processor 39
    Number of cells = 42535
    Number of points = 52217
    Number of faces shared with processor 15 = 2331
    Number of faces shared with processor 38 = 1071
    Number of faces shared with processor 423 = 721
    Number of faces shared with processor 40 = 713
    Number of faces shared with processor 62 = 58
    Number of faces shared with processor 63 = 653
    Number of faces shared with processor 447 = 310
    Number of faces shared with processor 64 = 36
    Number of processor patches = 8
    Number of processor faces = 5893
    Number of boundary faces = 6698

Processor 40
    Number of cells = 42535
    Number of points = 54246
    Number of faces shared with processor 15 = 161
    Number of faces shared with processor 16 = 2055
    Number of faces shared with processor 423 = 84
    Number of faces shared with processor 39 = 713
    Number of faces shared with processor 424 = 718
    Number of faces shared with processor 41 = 710
    Number of faces shared with processor 64 = 1842
    Number of faces shared with processor 65 = 2
    Number of processor patches = 8
    Number of processor faces = 6285
    Number of boundary faces = 5466

Processor 41
    Number of cells = 42535
    Number of points = 51283
    Number of faces shared with processor 400 = 139
    Number of faces shared with processor 16 = 497
    Number of faces shared with processor 401 = 483
    Number of faces shared with processor 17 = 1081
    Number of faces shared with processor 424 = 820
    Number of faces shared with processor 40 = 710
    Number of faces shared with processor 425 = 668
    Number of faces shared with processor 426 = 80
    Number of faces shared with processor 42 = 469
    Number of faces shared with processor 64 = 12
    Number of faces shared with processor 449 = 538
    Number of faces shared with processor 65 = 1548
    Number of faces shared with processor 450 = 40
    Number of faces shared with processor 66 = 571
    Number of processor patches = 14
    Number of processor faces = 7656
    Number of boundary faces = 3563

Processor 42
    Number of cells = 42535
    Number of points = 46709
    Number of faces shared with processor 401 = 132
    Number of faces shared with processor 17 = 564
    Number of faces shared with processor 18 = 1472
    Number of faces shared with processor 402 = 582
    Number of faces shared with processor 19 = 126
    Number of faces shared with processor 403 = 45
    Number of faces shared with processor 41 = 469
    Number of faces shared with processor 426 = 771
    Number of faces shared with processor 427 = 17
    Number of faces shared with processor 43 = 1009
    Number of faces shared with processor 66 = 2173
    Number of processor patches = 11
    Number of processor faces = 7360
    Number of boundary faces = 756

Processor 43
    Number of cells = 42535
    Number of points = 46559
    Number of faces shared with processor 19 = 1380
    Number of faces shared with processor 403 = 468
    Number of faces shared with processor 42 = 1009
    Number of faces shared with processor 427 = 774
    Number of faces shared with processor 44 = 784
    Number of faces shared with processor 66 = 285
    Number of faces shared with processor 67 = 1857
    Number of faces shared with processor 68 = 504
    Number of processor patches = 8
    Number of processor faces = 7061
    Number of boundary faces = 759

Processor 44
    Number of cells = 42535
    Number of points = 47050
    Number of faces shared with processor 403 = 93
    Number of faces shared with processor 19 = 205
    Number of faces shared with processor 20 = 1250
    Number of faces shared with processor 404 = 1251
    Number of faces shared with processor 427 = 56
    Number of faces shared with processor 43 = 784
    Number of faces shared with processor 428 = 829
    Number of faces shared with processor 45 = 93
    Number of faces shared with processor 452 = 74
    Number of faces shared with processor 68 = 2366
    Number of faces shared with processor 69 = 186
    Number of processor patches = 11
    Number of processor faces = 7187
    Number of boundary faces = 761

Processor 45
    Number of cells = 42535
    Number of points = 47844
    Number of faces shared with processor 20 = 144
    Number of faces shared with processor 404 = 162
    Number of faces shared with processor 789 = 2086
    Number of faces shared with processor 21 = 414
    Number of faces shared with processor 405 = 960
    Number of faces shared with processor 428 = 9
    Number of faces shared with processor 44 = 93
    Number of faces shared with processor 429 = 1303
    Number of faces shared with processor 430 = 128
    Number of faces shared with processor 46 = 136
    Number of faces shared with processor 453 = 1
    Number of faces shared with processor 69 = 3478
    Number of faces shared with processor 454 = 16
    Number of faces shared with processor 70 = 116
    Number of processor patches = 14
    Number of processor faces = 9046
    Number of boundary faces = 1272

Processor 46
    Number of cells = 42535
    Number of points = 50311
    Number of faces shared with processor 789 = 27
    Number of faces shared with processor 21 = 64
    Number of faces shared with processor 405 = 88
    Number of faces shared with processor 1174 = 163
    Number of faces shared with processor 22 = 540
    Number of faces shared with processor 406 = 448
    Number of faces shared with processor 790 = 621
    Number of faces shared with processor 45 = 136
    Number of faces shared with processor 430 = 1874
    Number of faces shared with processor 70 = 2423
    Number of faces shared with processor 863 = 21
    Number of faces shared with processor 479 = 18
    Number of faces shared with processor 95 = 18
    Number of faces shared with processor 887 = 63
    Number of faces shared with processor 503 = 54
    Number of faces shared with processor 119 = 54
    Number of processor patches = 16
    Number of processor faces = 6612
    Number of boundary faces = 4717

Processor 47
    Number of cells = 42535
    Number of points = 65022
    Number of faces shared with processor 22 = 56
    Number of faces shared with processor 406 = 28
    Number of faces shared with processor 23 = 1481
    Number of faces shared with processor 431 = 20280
    Number of faces shared with processor 455 = 1
    Number of faces shared with processor 71 = 1572
    Number of processor patches = 6
    Number of processor faces = 23418
    Number of boundary faces = 20050

Processor 48
    Number of cells = 42535
    Number of points = 52163
    Number of faces shared with processor 768 = 4
    Number of faces shared with processor 529 = 30
    Number of faces shared with processor 145 = 21
    Number of faces shared with processor 24 = 2392
    Number of faces shared with processor 816 = 10
    Number of faces shared with processor 432 = 1306
    Number of faces shared with processor 456 = 297
    Number of faces shared with processor 72 = 2234
    Number of faces shared with processor 480 = 6
    Number of faces shared with processor 96 = 6
    Number of faces shared with processor 120 = 4
    Number of faces shared with processor 505 = 40
    Number of faces shared with processor 121 = 570
    Number of processor patches = 13
    Number of processor faces = 6920
    Number of boundary faces = 4452

Processor 49
    Number of cells = 42535
    Number of points = 54354
    Number of faces shared with processor 24 = 210
    Number of faces shared with processor 25 = 3110
    Number of faces shared with processor 26 = 74
    Number of faces shared with processor 433 = 718
    Number of faces shared with processor 50 = 377
    Number of faces shared with processor 457 = 327
    Number of faces shared with processor 73 = 3297
    Number of processor patches = 7
    Number of processor faces = 8113
    Number of boundary faces = 4991

Processor 50
    Number of cells = 42535
    Number of points = 54387
    Number of faces shared with processor 26 = 2700
    Number of faces shared with processor 411 = 53
    Number of faces shared with processor 27 = 201
    Number of faces shared with processor 49 = 377
    Number of faces shared with processor 434 = 478
    Number of faces shared with processor 435 = 479
    Number of faces shared with processor 51 = 694
    Number of faces shared with processor 73 = 67
    Number of faces shared with processor 458 = 140
    Number of faces shared with processor 74 = 2164
    Number of processor patches = 10
    Number of processor faces = 7353
    Number of boundary faces = 5858

Processor 51
    Number of cells = 42535
    Number of points = 51668
    Number of faces shared with processor 27 = 1842
    Number of faces shared with processor 50 = 694
    Number of faces shared with processor 435 = 1353
    Number of faces shared with processor 52 = 252
    Number of faces shared with processor 74 = 178
    Number of faces shared with processor 75 = 922
    Number of faces shared with processor 76 = 117
    Number of processor patches = 7
    Number of processor faces = 5358
    Number of boundary faces = 9884

Processor 52
    Number of cells = 42535
    Number of points = 54303
    Number of faces shared with processor 411 = 1
    Number of faces shared with processor 27 = 233
    Number of faces shared with processor 28 = 2307
    Number of faces shared with processor 29 = 114
    Number of faces shared with processor 51 = 252
    Number of faces shared with processor 435 = 361
    Number of faces shared with processor 436 = 382
    Number of faces shared with processor 53 = 612
    Number of faces shared with processor 460 = 22
    Number of faces shared with processor 76 = 2206
    Number of processor patches = 10
    Number of processor faces = 6490
    Number of boundary faces = 5841

Processor 53
    Number of cells = 42535
    Number of points = 52645
    Number of faces shared with processor 29 = 2115
    Number of faces shared with processor 30 = 189
    Number of faces shared with processor 52 = 612
    Number of faces shared with processor 437 = 920
    Number of faces shared with processor 54 = 429
    Number of faces shared with processor 76 = 504
    Number of faces shared with processor 77 = 1661
    Number of processor patches = 7
    Number of processor faces = 6430
    Number of boundary faces = 4332

Processor 54
    Number of cells = 42535
    Number of points = 53576
    Number of faces shared with processor 30 = 2012
    Number of faces shared with processor 53 = 429
    Number of faces shared with processor 438 = 3157
    Number of faces shared with processor 77 = 336
    Number of faces shared with processor 462 = 1250
    Number of faces shared with processor 78 = 905
    Number of faces shared with processor 79 = 454
    Number of faces shared with processor 487 = 24
    Number of faces shared with processor 103 = 118
    Number of processor patches = 9
    Number of processor faces = 8685
    Number of boundary faces = 3056

Processor 55
    Number of cells = 42535
    Number of points = 49647
    Number of faces shared with processor 390 = 24
    Number of faces shared with processor 414 = 209
    Number of faces shared with processor 30 = 728
    Number of faces shared with processor 31 = 3482
    Number of faces shared with processor 439 = 254
    Number of faces shared with processor 440 = 350
    Number of faces shared with processor 56 = 584
    Number of faces shared with processor 463 = 6
    Number of faces shared with processor 79 = 1480
    Number of processor patches = 9
    Number of processor faces = 7117
    Number of boundary faces = 4534

Processor 56
    Number of cells = 42535
    Number of points = 49862
    Number of faces shared with processor 32 = 1394
    Number of faces shared with processor 55 = 584
    Number of faces shared with processor 440 = 773
    Number of faces shared with processor 57 = 216
    Number of faces shared with processor 79 = 248
    Number of faces shared with processor 464 = 328
    Number of faces shared with processor 80 = 2874
    Number of faces shared with processor 81 = 583
    Number of faces shared with processor 465 = 148
    Number of processor patches = 9
    Number of processor faces = 7148
    Number of boundary faces = 3664

Processor 57
    Number of cells = 42535
    Number of points = 50780
    Number of faces shared with processor 416 = 21
    Number of faces shared with processor 32 = 203
    Number of faces shared with processor 417 = 263
    Number of faces shared with processor 33 = 3437
    Number of faces shared with processor 418 = 14
    Number of faces shared with processor 34 = 106
    Number of faces shared with processor 440 = 375
    Number of faces shared with processor 56 = 216
    Number of faces shared with processor 441 = 424
    Number of faces shared with processor 442 = 234
    Number of faces shared with processor 58 = 468
    Number of faces shared with processor 465 = 1346
    Number of faces shared with processor 81 = 1258
    Number of processor patches = 13
    Number of processor faces = 8365
    Number of boundary faces = 4487

Processor 58
    Number of cells = 42535
    Number of points = 48980
    Number of faces shared with processor 34 = 1961
    Number of faces shared with processor 35 = 112
    Number of faces shared with processor 57 = 468
    Number of faces shared with processor 442 = 648
    Number of faces shared with processor 443 = 176
    Number of faces shared with processor 59 = 640
    Number of faces shared with processor 465 = 165
    Number of faces shared with processor 81 = 302
    Number of faces shared with processor 466 = 177
    Number of faces shared with processor 82 = 1785
    Number of processor patches = 10
    Number of processor faces = 6434
    Number of boundary faces = 3267

Processor 59
    Number of cells = 42535
    Number of points = 50233
    Number of faces shared with processor 35 = 1505
    Number of faces shared with processor 58 = 640
    Number of faces shared with processor 443 = 862
    Number of faces shared with processor 60 = 226
    Number of faces shared with processor 466 = 59
    Number of faces shared with processor 82 = 259
    Number of faces shared with processor 83 = 2688
    Number of faces shared with processor 467 = 767
    Number of faces shared with processor 468 = 119
    Number of faces shared with processor 84 = 518
    Number of processor patches = 10
    Number of processor faces = 7643
    Number of boundary faces = 3565

Processor 60
    Number of cells = 42535
    Number of points = 51987
    Number of faces shared with processor 35 = 77
    Number of faces shared with processor 420 = 222
    Number of faces shared with processor 36 = 2491
    Number of faces shared with processor 421 = 12
    Number of faces shared with processor 37 = 340
    Number of faces shared with processor 59 = 226
    Number of faces shared with processor 443 = 433
    Number of faces shared with processor 444 = 674
    Number of faces shared with processor 445 = 20
    Number of faces shared with processor 61 = 89
    Number of faces shared with processor 84 = 1359
    Number of faces shared with processor 468 = 2080
    Number of processor patches = 12
    Number of processor faces = 8023
    Number of boundary faces = 4141

Processor 61
    Number of cells = 42535
    Number of points = 53645
    Number of faces shared with processor 37 = 1522
    Number of faces shared with processor 38 = 83
    Number of faces shared with processor 60 = 89
    Number of faces shared with processor 445 = 376
    Number of faces shared with processor 62 = 426
    Number of faces shared with processor 84 = 324
    Number of faces shared with processor 468 = 137
    Number of faces shared with processor 85 = 2684
    Number of faces shared with processor 86 = 101
    Number of processor patches = 9
    Number of processor faces = 5742
    Number of boundary faces = 5710

Processor 62
    Number of cells = 42535
    Number of points = 55306
    Number of faces shared with processor 422 = 44
    Number of faces shared with processor 38 = 1897
    Number of faces shared with processor 39 = 58
    Number of faces shared with processor 423 = 31
    Number of faces shared with processor 61 = 426
    Number of faces shared with processor 446 = 747
    Number of faces shared with processor 63 = 419
    Number of faces shared with processor 447 = 820
    Number of faces shared with processor 470 = 358
    Number of faces shared with processor 86 = 1556
    Number of faces shared with processor 87 = 122
    Number of faces shared with processor 471 = 69
    Number of processor patches = 12
    Number of processor faces = 6547
    Number of boundary faces = 5748

Processor 63
    Number of cells = 42535
    Number of points = 50708
    Number of faces shared with processor 39 = 653
    Number of faces shared with processor 62 = 419
    Number of faces shared with processor 447 = 937
    Number of faces shared with processor 64 = 415
    Number of faces shared with processor 471 = 41
    Number of faces shared with processor 87 = 984
    Number of processor patches = 6
    Number of processor faces = 3449
    Number of boundary faces = 9176

Processor 64
    Number of cells = 42535
    Number of points = 55084
    Number of faces shared with processor 423 = 7
    Number of faces shared with processor 39 = 36
    Number of faces shared with processor 424 = 20
    Number of faces shared with processor 40 = 1842
    Number of faces shared with processor 41 = 12
    Number of faces shared with processor 447 = 327
    Number of faces shared with processor 63 = 415
    Number of faces shared with processor 448 = 734
    Number of faces shared with processor 65 = 588
    Number of faces shared with processor 87 = 92
    Number of faces shared with processor 471 = 113
    Number of faces shared with processor 472 = 215
    Number of faces shared with processor 88 = 2400
    Number of processor patches = 13
    Number of processor faces = 6801
    Number of boundary faces = 5713

Processor 65
    Number of cells = 42535
    Number of points = 54126
    Number of faces shared with processor 40 = 2
    Number of faces shared with processor 41 = 1548
    Number of faces shared with processor 64 = 588
    Number of faces shared with processor 449 = 485
    Number of faces shared with processor 66 = 729
    Number of faces shared with processor 88 = 96
    Number of faces shared with processor 473 = 424
    Number of faces shared with processor 89 = 2680
    Number of faces shared with processor 90 = 261
    Number of processor patches = 9
    Number of processor faces = 6813
    Number of boundary faces = 5337

Processor 66
    Number of cells = 42535
    Number of points = 51389
    Number of faces shared with processor 41 = 571
    Number of faces shared with processor 426 = 327
    Number of faces shared with processor 42 = 2173
    Number of faces shared with processor 43 = 285
    Number of faces shared with processor 427 = 60
    Number of faces shared with processor 449 = 856
    Number of faces shared with processor 65 = 729
    Number of faces shared with processor 450 = 897
    Number of faces shared with processor 67 = 469
    Number of faces shared with processor 90 = 2427
    Number of faces shared with processor 474 = 949
    Number of processor patches = 11
    Number of processor faces = 9743
    Number of boundary faces = 2417

Processor 67
    Number of cells = 42535
    Number of points = 49161
    Number of faces shared with processor 43 = 1857
    Number of faces shared with processor 427 = 599
    Number of faces shared with processor 450 = 64
    Number of faces shared with processor 66 = 469
    Number of faces shared with processor 451 = 746
    Number of faces shared with processor 68 = 590
    Number of faces shared with processor 452 = 167
    Number of faces shared with processor 90 = 524
    Number of faces shared with processor 474 = 523
    Number of faces shared with processor 475 = 481
    Number of faces shared with processor 91 = 1949
    Number of faces shared with processor 476 = 24
    Number of faces shared with processor 92 = 340
    Number of processor patches = 13
    Number of processor faces = 8333
    Number of boundary faces = 1349

Processor 68
    Number of cells = 42535
    Number of points = 46967
    Number of faces shared with processor 427 = 25
    Number of faces shared with processor 43 = 504
    Number of faces shared with processor 44 = 2366
    Number of faces shared with processor 67 = 590
    Number of faces shared with processor 452 = 810
    Number of faces shared with processor 69 = 195
    Number of faces shared with processor 92 = 2454
    Number of faces shared with processor 93 = 75
    Number of processor patches = 8
    Number of processor faces = 7019
    Number of boundary faces = 794

Processor 69
    Number of cells = 42535
    Number of points = 47863
    Number of faces shared with processor 428 = 18
    Number of faces shared with processor 44 = 186
    Number of faces shared with processor 429 = 26
    Number of faces shared with processor 45 = 3478
    Number of faces shared with processor 452 = 24
    Number of faces shared with processor 68 = 195
    Number of faces shared with processor 453 = 1285
    Number of faces shared with processor 454 = 36
    Number of faces shared with processor 70 = 261
    Number of faces shared with processor 93 = 3500
    Number of faces shared with processor 94 = 93
    Number of faces shared with processor 478 = 6
    Number of processor patches = 12
    Number of processor faces = 9108
    Number of boundary faces = 1248

Processor 70
    Number of cells = 42535
    Number of points = 49339
    Number of faces shared with processor 1295 = 4
    Number of faces shared with processor 911 = 30
    Number of faces shared with processor 143 = 21
    Number of faces shared with processor 527 = 21
    Number of faces shared with processor 45 = 116
    Number of faces shared with processor 430 = 1191
    Number of faces shared with processor 46 = 2423
    Number of faces shared with processor 69 = 261
    Number of faces shared with processor 454 = 1311
    Number of faces shared with processor 94 = 3765
    Number of faces shared with processor 1271 = 1
    Number of faces shared with processor 887 = 29
    Number of faces shared with processor 119 = 18
    Number of faces shared with processor 503 = 18
    Number of processor patches = 14
    Number of processor faces = 9209
    Number of boundary faces = 2547

Processor 71
    Number of cells = 42535
    Number of points = 62826
    Number of faces shared with processor 22 = 50
    Number of faces shared with processor 406 = 25
    Number of faces shared with processor 431 = 127
    Number of faces shared with processor 47 = 1572
    Number of faces shared with processor 455 = 17843
    Number of faces shared with processor 479 = 1
    Number of faces shared with processor 95 = 1745
    Number of processor patches = 7
    Number of processor faces = 21363
    Number of boundary faces = 17721

Processor 72
    Number of cells = 42535
    Number of points = 51547
    Number of faces shared with processor 529 = 313
    Number of faces shared with processor 145 = 290
    Number of faces shared with processor 48 = 2234
    Number of faces shared with processor 456 = 1004
    Number of faces shared with processor 480 = 104
    Number of faces shared with processor 96 = 2435
    Number of processor patches = 6
    Number of processor faces = 6380
    Number of boundary faces = 4223

Processor 73
    Number of cells = 42535
    Number of points = 53903
    Number of faces shared with processor 24 = 298
    Number of faces shared with processor 49 = 3297
    Number of faces shared with processor 50 = 67
    Number of faces shared with processor 457 = 581
    Number of faces shared with processor 74 = 325
    Number of faces shared with processor 97 = 2021
    Number of faces shared with processor 98 = 154
    Number of processor patches = 7
    Number of processor faces = 6743
    Number of boundary faces = 5312

Processor 74
    Number of cells = 42535
    Number of points = 54089
    Number of faces shared with processor 50 = 2164
    Number of faces shared with processor 435 = 101
    Number of faces shared with processor 51 = 178
    Number of faces shared with processor 73 = 325
    Number of faces shared with processor 458 = 684
    Number of faces shared with processor 459 = 306
    Number of faces shared with processor 75 = 654
    Number of faces shared with processor 482 = 126
    Number of faces shared with processor 98 = 2704
    Number of processor patches = 9
    Number of processor faces = 7242
    Number of boundary faces = 6169

Processor 75
    Number of cells = 42535
    Number of points = 51644
    Number of faces shared with processor 51 = 922
    Number of faces shared with processor 435 = 414
    Number of faces shared with processor 74 = 654
    Number of faces shared with processor 459 = 1075
    Number of faces shared with processor 76 = 525
    Number of faces shared with processor 98 = 368
    Number of faces shared with processor 99 = 531
    Number of faces shared with processor 483 = 698
    Number of faces shared with processor 100 = 168
    Number of processor patches = 9
    Number of processor faces = 5355
    Number of boundary faces = 7088

Processor 76
    Number of cells = 42535
    Number of points = 53979
    Number of faces shared with processor 51 = 117
    Number of faces shared with processor 435 = 186
    Number of faces shared with processor 52 = 2206
    Number of faces shared with processor 53 = 504
    Number of faces shared with processor 75 = 525
    Number of faces shared with processor 459 = 339
    Number of faces shared with processor 460 = 655
    Number of faces shared with processor 77 = 146
    Number of faces shared with processor 484 = 106
    Number of faces shared with processor 100 = 2172
    Number of processor patches = 10
    Number of processor faces = 6956
    Number of boundary faces = 5965

Processor 77
    Number of cells = 42535
    Number of points = 52716
    Number of faces shared with processor 437 = 108
    Number of faces shared with processor 53 = 1661
    Number of faces shared with processor 54 = 336
    Number of faces shared with processor 76 = 146
    Number of faces shared with processor 461 = 794
    Number of faces shared with processor 462 = 30
    Number of faces shared with processor 78 = 203
    Number of faces shared with processor 100 = 662
    Number of faces shared with processor 485 = 318
    Number of faces shared with processor 101 = 883
    Number of faces shared with processor 124 = 422
    Number of processor patches = 11
    Number of processor faces = 5563
    Number of boundary faces = 4538

Processor 78
    Number of cells = 42535
    Number of points = 54470
    Number of faces shared with processor 54 = 905
    Number of faces shared with processor 77 = 203
    Number of faces shared with processor 462 = 8765
    Number of faces shared with processor 101 = 737
    Number of faces shared with processor 102 = 1015
    Number of faces shared with processor 103 = 637
    Number of faces shared with processor 509 = 4
    Number of faces shared with processor 125 = 52
    Number of faces shared with processor 127 = 142
    Number of processor patches = 9
    Number of processor faces = 12460
    Number of boundary faces = 324

Processor 79
    Number of cells = 42535
    Number of points = 51385
    Number of faces shared with processor 30 = 133
    Number of faces shared with processor 438 = 125
    Number of faces shared with processor 54 = 454
    Number of faces shared with processor 55 = 1480
    Number of faces shared with processor 56 = 248
    Number of faces shared with processor 463 = 3537
    Number of faces shared with processor 80 = 489
    Number of faces shared with processor 487 = 270
    Number of faces shared with processor 103 = 555
    Number of processor patches = 9
    Number of processor faces = 7291
    Number of boundary faces = 2620

Processor 80
    Number of cells = 42535
    Number of points = 54405
    Number of faces shared with processor 56 = 2874
    Number of faces shared with processor 463 = 71
    Number of faces shared with processor 79 = 489
    Number of faces shared with processor 464 = 4614
    Number of faces shared with processor 465 = 36
    Number of faces shared with processor 81 = 242
    Number of faces shared with processor 487 = 68
    Number of faces shared with processor 103 = 102
    Number of faces shared with processor 488 = 1421
    Number of faces shared with processor 104 = 1110
    Number of faces shared with processor 489 = 11
    Number of faces shared with processor 105 = 387
    Number of processor patches = 12
    Number of processor faces = 11425
    Number of boundary faces = 1995

Processor 81
    Number of cells = 42535
    Number of points = 51307
    Number of faces shared with processor 56 = 583
    Number of faces shared with processor 57 = 1258
    Number of faces shared with processor 58 = 302
    Number of faces shared with processor 80 = 242
    Number of faces shared with processor 465 = 3573
    Number of faces shared with processor 82 = 460
    Number of faces shared with processor 105 = 2310
    Number of processor patches = 7
    Number of processor faces = 8728
    Number of boundary faces = 2041

Processor 82
    Number of cells = 42535
    Number of points = 52254
    Number of faces shared with processor 58 = 1785
    Number of faces shared with processor 59 = 259
    Number of faces shared with processor 465 = 52
    Number of faces shared with processor 81 = 460
    Number of faces shared with processor 466 = 4535
    Number of faces shared with processor 83 = 309
    Number of faces shared with processor 489 = 15
    Number of faces shared with processor 105 = 183
    Number of faces shared with processor 106 = 1220
    Number of processor patches = 9
    Number of processor faces = 8818
    Number of boundary faces = 1939

Processor 83
    Number of cells = 42535
    Number of points = 52585
    Number of faces shared with processor 59 = 2688
    Number of faces shared with processor 466 = 21
    Number of faces shared with processor 82 = 309
    Number of faces shared with processor 467 = 3395
    Number of faces shared with processor 84 = 262
    Number of faces shared with processor 106 = 435
    Number of faces shared with processor 491 = 122
    Number of faces shared with processor 107 = 975
    Number of faces shared with processor 108 = 537
    Number of processor patches = 9
    Number of processor faces = 8744
    Number of boundary faces = 2401

Processor 84
    Number of cells = 42535
    Number of points = 50916
    Number of faces shared with processor 59 = 518
    Number of faces shared with processor 60 = 1359
    Number of faces shared with processor 61 = 324
    Number of faces shared with processor 467 = 55
    Number of faces shared with processor 83 = 262
    Number of faces shared with processor 468 = 3176
    Number of faces shared with processor 85 = 214
    Number of faces shared with processor 108 = 2148
    Number of processor patches = 8
    Number of processor faces = 8056
    Number of boundary faces = 2413

Processor 85
    Number of cells = 42535
    Number of points = 53613
    Number of faces shared with processor 445 = 45
    Number of faces shared with processor 61 = 2684
    Number of faces shared with processor 84 = 214
    Number of faces shared with processor 468 = 90
    Number of faces shared with processor 469 = 414
    Number of faces shared with processor 470 = 29
    Number of faces shared with processor 86 = 345
    Number of faces shared with processor 108 = 154
    Number of faces shared with processor 492 = 52
    Number of faces shared with processor 109 = 1219
    Number of faces shared with processor 494 = 127
    Number of faces shared with processor 110 = 255
    Number of processor patches = 12
    Number of processor faces = 5628
    Number of boundary faces = 6084

Processor 86
    Number of cells = 42535
    Number of points = 54038
    Number of faces shared with processor 61 = 101
    Number of faces shared with processor 62 = 1556
    Number of faces shared with processor 85 = 345
    Number of faces shared with processor 470 = 616
    Number of faces shared with processor 87 = 883
    Number of faces shared with processor 471 = 328
    Number of faces shared with processor 494 = 157
    Number of faces shared with processor 110 = 2082
    Number of faces shared with processor 111 = 109
    Number of faces shared with processor 495 = 98
    Number of processor patches = 10
    Number of processor faces = 6275
    Number of boundary faces = 6111

Processor 87
    Number of cells = 42535
    Number of points = 50737
    Number of faces shared with processor 62 = 122
    Number of faces shared with processor 63 = 984
    Number of faces shared with processor 64 = 92
    Number of faces shared with processor 86 = 883
    Number of faces shared with processor 471 = 800
    Number of faces shared with processor 88 = 383
    Number of faces shared with processor 111 = 674
    Number of faces shared with processor 495 = 455
    Number of processor patches = 8
    Number of processor faces = 4393
    Number of boundary faces = 7955

Processor 88
    Number of cells = 42535
    Number of points = 54232
    Number of faces shared with processor 64 = 2400
    Number of faces shared with processor 65 = 96
    Number of faces shared with processor 87 = 383
    Number of faces shared with processor 471 = 435
    Number of faces shared with processor 472 = 675
    Number of faces shared with processor 89 = 469
    Number of faces shared with processor 111 = 151
    Number of faces shared with processor 495 = 343
    Number of faces shared with processor 496 = 327
    Number of faces shared with processor 112 = 1939
    Number of processor patches = 10
    Number of processor faces = 7218
    Number of boundary faces = 5365

Processor 89
    Number of cells = 42535
    Number of points = 54216
    Number of faces shared with processor 65 = 2680
    Number of faces shared with processor 88 = 469
    Number of faces shared with processor 473 = 517
    Number of faces shared with processor 90 = 444
    Number of faces shared with processor 112 = 338
    Number of faces shared with processor 113 = 2502
    Number of faces shared with processor 114 = 115
    Number of processor patches = 7
    Number of processor faces = 7065
    Number of boundary faces = 5955

Processor 90
    Number of cells = 42535
    Number of points = 52435
    Number of faces shared with processor 449 = 4
    Number of faces shared with processor 65 = 261
    Number of faces shared with processor 66 = 2427
    Number of faces shared with processor 67 = 524
    Number of faces shared with processor 473 = 172
    Number of faces shared with processor 89 = 444
    Number of faces shared with processor 474 = 843
    Number of faces shared with processor 91 = 75
    Number of faces shared with processor 114 = 2386
    Number of processor patches = 9
    Number of processor faces = 7136
    Number of boundary faces = 3643

Processor 91
    Number of cells = 42535
    Number of points = 54008
    Number of faces shared with processor 522 = 32
    Number of faces shared with processor 138 = 14
    Number of faces shared with processor 67 = 1949
    Number of faces shared with processor 90 = 75
    Number of faces shared with processor 475 = 1007
    Number of faces shared with processor 92 = 482
    Number of faces shared with processor 498 = 255
    Number of faces shared with processor 114 = 935
    Number of faces shared with processor 499 = 199
    Number of faces shared with processor 115 = 3485
    Number of processor patches = 10
    Number of processor faces = 8433
    Number of boundary faces = 3956

Processor 92
    Number of cells = 42535
    Number of points = 52092
    Number of faces shared with processor 523 = 141
    Number of faces shared with processor 139 = 447
    Number of faces shared with processor 67 = 340
    Number of faces shared with processor 68 = 2454
    Number of faces shared with processor 452 = 475
    Number of faces shared with processor 475 = 85
    Number of faces shared with processor 91 = 482
    Number of faces shared with processor 476 = 1389
    Number of faces shared with processor 477 = 10
    Number of faces shared with processor 93 = 350
    Number of faces shared with processor 499 = 409
    Number of faces shared with processor 115 = 674
    Number of faces shared with processor 500 = 155
    Number of faces shared with processor 116 = 1552
    Number of faces shared with processor 501 = 16
    Number of faces shared with processor 117 = 272
    Number of processor patches = 16
    Number of processor faces = 9251
    Number of boundary faces = 1684

Processor 93
    Number of cells = 42535
    Number of points = 47906
    Number of faces shared with processor 68 = 75
    Number of faces shared with processor 452 = 15
    Number of faces shared with processor 69 = 3500
    Number of faces shared with processor 453 = 57
    Number of faces shared with processor 92 = 350
    Number of faces shared with processor 477 = 1269
    Number of faces shared with processor 94 = 310
    Number of faces shared with processor 478 = 30
    Number of faces shared with processor 117 = 3421
    Number of faces shared with processor 501 = 121
    Number of faces shared with processor 118 = 58
    Number of faces shared with processor 502 = 10
    Number of processor patches = 12
    Number of processor faces = 9216
    Number of boundary faces = 1224

Processor 94
    Number of cells = 42535
    Number of points = 49590
    Number of faces shared with processor 1295 = 6
    Number of faces shared with processor 911 = 63
    Number of faces shared with processor 143 = 36
    Number of faces shared with processor 527 = 36
    Number of faces shared with processor 69 = 93
    Number of faces shared with processor 70 = 3765
    Number of faces shared with processor 454 = 140
    Number of faces shared with processor 93 = 310
    Number of faces shared with processor 478 = 1304
    Number of faces shared with processor 118 = 3729
    Number of faces shared with processor 502 = 178
    Number of processor patches = 11
    Number of processor faces = 9660
    Number of boundary faces = 2369

Processor 95
    Number of cells = 42535
    Number of points = 62376
    Number of faces shared with processor 22 = 36
    Number of faces shared with processor 406 = 18
    Number of faces shared with processor 46 = 18
    Number of faces shared with processor 455 = 13
    Number of faces shared with processor 71 = 1745
    Number of faces shared with processor 479 = 17334
    Number of faces shared with processor 503 = 35
    Number of faces shared with processor 119 = 1763
    Number of processor patches = 8
    Number of processor faces = 20962
    Number of boundary faces = 17224

Processor 96
    Number of cells = 42535
    Number of points = 51635
    Number of faces shared with processor 144 = 22
    Number of faces shared with processor 529 = 229
    Number of faces shared with processor 145 = 203
    Number of faces shared with processor 937 = 25
    Number of faces shared with processor 553 = 21
    Number of faces shared with processor 169 = 37
    Number of faces shared with processor 48 = 6
    Number of faces shared with processor 72 = 2435
    Number of faces shared with processor 480 = 1359
    Number of faces shared with processor 120 = 2520
    Number of processor patches = 10
    Number of processor faces = 6857
    Number of boundary faces = 4152

Processor 97
    Number of cells = 42535
    Number of points = 53788
    Number of faces shared with processor 24 = 342
    Number of faces shared with processor 457 = 160
    Number of faces shared with processor 73 = 2021
    Number of faces shared with processor 481 = 539
    Number of faces shared with processor 98 = 278
    Number of faces shared with processor 505 = 457
    Number of faces shared with processor 121 = 1788
    Number of faces shared with processor 122 = 351
    Number of processor patches = 8
    Number of processor faces = 5936
    Number of boundary faces = 5075

Processor 98
    Number of cells = 42535
    Number of points = 54362
    Number of faces shared with processor 73 = 154
    Number of faces shared with processor 74 = 2704
    Number of faces shared with processor 459 = 97
    Number of faces shared with processor 75 = 368
    Number of faces shared with processor 97 = 278
    Number of faces shared with processor 482 = 717
    Number of faces shared with processor 99 = 363
    Number of faces shared with processor 483 = 380
    Number of faces shared with processor 122 = 1752
    Number of processor patches = 9
    Number of processor faces = 6813
    Number of boundary faces = 5854

Processor 99
    Number of cells = 42535
    Number of points = 50245
    Number of faces shared with processor 75 = 531
    Number of faces shared with processor 98 = 363
    Number of faces shared with processor 483 = 1477
    Number of faces shared with processor 100 = 288
    Number of faces shared with processor 122 = 46
    Number of faces shared with processor 123 = 515
    Number of faces shared with processor 124 = 10
    Number of processor patches = 7
    Number of processor faces = 3230
    Number of boundary faces = 8963

Processor 100
    Number of cells = 42535
    Number of points = 54388
    Number of faces shared with processor 459 = 54
    Number of faces shared with processor 75 = 168
    Number of faces shared with processor 76 = 2172
    Number of faces shared with processor 77 = 662
    Number of faces shared with processor 99 = 288
    Number of faces shared with processor 483 = 468
    Number of faces shared with processor 484 = 539
    Number of faces shared with processor 124 = 1559
    Number of processor patches = 8
    Number of processor faces = 5910
    Number of boundary faces = 5542

Processor 101
    Number of cells = 42535
    Number of points = 50969
    Number of faces shared with processor 148 = 327
    Number of faces shared with processor 556 = 54
    Number of faces shared with processor 172 = 20
    Number of faces shared with processor 77 = 883
    Number of faces shared with processor 462 = 68
    Number of faces shared with processor 78 = 737
    Number of faces shared with processor 485 = 1371
    Number of faces shared with processor 124 = 91
    Number of faces shared with processor 509 = 98
    Number of faces shared with processor 125 = 1200
    Number of processor patches = 10
    Number of processor faces = 4849
    Number of boundary faces = 3839

Processor 102
    Number of cells = 42535
    Number of points = 51227
    Number of faces shared with processor 149 = 102
    Number of faces shared with processor 462 = 319
    Number of faces shared with processor 78 = 1015
    Number of faces shared with processor 486 = 2065
    Number of faces shared with processor 509 = 141
    Number of faces shared with processor 125 = 619
    Number of faces shared with processor 126 = 306
    Number of faces shared with processor 127 = 794
    Number of faces shared with processor 511 = 100
    Number of processor patches = 9
    Number of processor faces = 5461
    Number of boundary faces = 3704

Processor 103
    Number of cells = 42535
    Number of points = 51935
    Number of faces shared with processor 128 = 5
    Number of faces shared with processor 54 = 118
    Number of faces shared with processor 462 = 296
    Number of faces shared with processor 78 = 637
    Number of faces shared with processor 79 = 555
    Number of faces shared with processor 80 = 102
    Number of faces shared with processor 487 = 5850
    Number of faces shared with processor 104 = 895
    Number of faces shared with processor 511 = 194
    Number of faces shared with processor 127 = 1329
    Number of processor patches = 10
    Number of processor faces = 9981
    Number of boundary faces = 712

Processor 104
    Number of cells = 42535
    Number of points = 52287
    Number of faces shared with processor 512 = 313
    Number of faces shared with processor 128 = 1343
    Number of faces shared with processor 129 = 565
    Number of faces shared with processor 80 = 1110
    Number of faces shared with processor 487 = 141
    Number of faces shared with processor 103 = 895
    Number of faces shared with processor 488 = 6622
    Number of faces shared with processor 105 = 234
    Number of processor patches = 8
    Number of processor faces = 11223
    Number of boundary faces = 255

Processor 105
    Number of cells = 42535
    Number of points = 53383
    Number of faces shared with processor 513 = 133
    Number of faces shared with processor 129 = 1075
    Number of faces shared with processor 80 = 387
    Number of faces shared with processor 465 = 295
    Number of faces shared with processor 81 = 2310
    Number of faces shared with processor 82 = 183
    Number of faces shared with processor 488 = 97
    Number of faces shared with processor 104 = 234
    Number of faces shared with processor 489 = 3964
    Number of faces shared with processor 106 = 558
    Number of processor patches = 10
    Number of processor faces = 9236
    Number of boundary faces = 2506

Processor 106
    Number of cells = 42535
    Number of points = 51647
    Number of faces shared with processor 513 = 15
    Number of faces shared with processor 129 = 71
    Number of faces shared with processor 514 = 172
    Number of faces shared with processor 130 = 1133
    Number of faces shared with processor 466 = 222
    Number of faces shared with processor 82 = 1220
    Number of faces shared with processor 467 = 178
    Number of faces shared with processor 83 = 435
    Number of faces shared with processor 489 = 82
    Number of faces shared with processor 105 = 558
    Number of faces shared with processor 490 = 2019
    Number of faces shared with processor 491 = 144
    Number of faces shared with processor 107 = 137
    Number of processor patches = 13
    Number of processor faces = 6386
    Number of boundary faces = 3643

Processor 107
    Number of cells = 42535
    Number of points = 52569
    Number of faces shared with processor 514 = 51
    Number of faces shared with processor 130 = 706
    Number of faces shared with processor 131 = 975
    Number of faces shared with processor 132 = 656
    Number of faces shared with processor 83 = 975
    Number of faces shared with processor 106 = 137
    Number of faces shared with processor 491 = 6995
    Number of faces shared with processor 108 = 174
    Number of processor patches = 8
    Number of processor faces = 10669
    Number of boundary faces = 255

Processor 108
    Number of cells = 42535
    Number of points = 51894
    Number of faces shared with processor 516 = 220
    Number of faces shared with processor 132 = 1380
    Number of faces shared with processor 133 = 217
    Number of faces shared with processor 467 = 41
    Number of faces shared with processor 83 = 537
    Number of faces shared with processor 84 = 2148
    Number of faces shared with processor 468 = 591
    Number of faces shared with processor 85 = 154
    Number of faces shared with processor 491 = 66
    Number of faces shared with processor 107 = 174
    Number of faces shared with processor 492 = 1520
    Number of faces shared with processor 109 = 287
    Number of processor patches = 12
    Number of processor faces = 7335
    Number of boundary faces = 3419

Processor 109
    Number of cells = 42535
    Number of points = 54915
    Number of faces shared with processor 133 = 3094
    Number of faces shared with processor 518 = 663
    Number of faces shared with processor 134 = 373
    Number of faces shared with processor 469 = 203
    Number of faces shared with processor 85 = 1219
    Number of faces shared with processor 492 = 162
    Number of faces shared with processor 108 = 287
    Number of faces shared with processor 493 = 660
    Number of faces shared with processor 494 = 527
    Number of faces shared with processor 110 = 279
    Number of processor patches = 10
    Number of processor faces = 7467
    Number of boundary faces = 6505

Processor 110
    Number of cells = 42535
    Number of points = 53722
    Number of faces shared with processor 134 = 1658
    Number of faces shared with processor 519 = 173
    Number of faces shared with processor 135 = 100
    Number of faces shared with processor 85 = 255
    Number of faces shared with processor 86 = 2082
    Number of faces shared with processor 109 = 279
    Number of faces shared with processor 494 = 623
    Number of faces shared with processor 111 = 697
    Number of faces shared with processor 495 = 449
    Number of processor patches = 9
    Number of processor faces = 6316
    Number of boundary faces = 5611

Processor 111
    Number of cells = 42535
    Number of points = 51481
    Number of faces shared with processor 135 = 1739
    Number of faces shared with processor 519 = 475
    Number of faces shared with processor 86 = 109
    Number of faces shared with processor 87 = 674
    Number of faces shared with processor 88 = 151
    Number of faces shared with processor 110 = 697
    Number of faces shared with processor 495 = 1399
    Number of faces shared with processor 112 = 173
    Number of processor patches = 8
    Number of processor faces = 5417
    Number of boundary faces = 9485

Processor 112
    Number of cells = 42535
    Number of points = 54359
    Number of faces shared with processor 135 = 250
    Number of faces shared with processor 519 = 401
    Number of faces shared with processor 136 = 2183
    Number of faces shared with processor 88 = 1939
    Number of faces shared with processor 89 = 338
    Number of faces shared with processor 111 = 173
    Number of faces shared with processor 495 = 328
    Number of faces shared with processor 496 = 642
    Number of faces shared with processor 113 = 293
    Number of processor patches = 9
    Number of processor faces = 6547
    Number of boundary faces = 6246

Processor 113
    Number of cells = 42535
    Number of points = 53697
    Number of faces shared with processor 136 = 1674
    Number of faces shared with processor 137 = 748
    Number of faces shared with processor 522 = 129
    Number of faces shared with processor 138 = 231
    Number of faces shared with processor 473 = 940
    Number of faces shared with processor 89 = 2502
    Number of faces shared with processor 496 = 43
    Number of faces shared with processor 112 = 293
    Number of faces shared with processor 497 = 716
    Number of faces shared with processor 498 = 16
    Number of faces shared with processor 114 = 344
    Number of processor patches = 11
    Number of processor faces = 7636
    Number of boundary faces = 4358

Processor 114
    Number of cells = 42535
    Number of points = 53706
    Number of faces shared with processor 522 = 1175
    Number of faces shared with processor 138 = 1223
    Number of faces shared with processor 473 = 36
    Number of faces shared with processor 89 = 115
    Number of faces shared with processor 474 = 422
    Number of faces shared with processor 90 = 2386
    Number of faces shared with processor 91 = 935
    Number of faces shared with processor 113 = 344
    Number of faces shared with processor 498 = 1246
    Number of processor patches = 9
    Number of processor faces = 7882
    Number of boundary faces = 3170

Processor 115
    Number of cells = 42535
    Number of points = 54142
    Number of faces shared with processor 522 = 326
    Number of faces shared with processor 138 = 337
    Number of faces shared with processor 139 = 2085
    Number of faces shared with processor 91 = 3485
    Number of faces shared with processor 92 = 674
    Number of faces shared with processor 499 = 1582
    Number of processor patches = 6
    Number of processor faces = 8489
    Number of boundary faces = 3179

Processor 116
    Number of cells = 42535
    Number of points = 52327
    Number of faces shared with processor 139 = 480
    Number of faces shared with processor 523 = 45
    Number of faces shared with processor 140 = 1805
    Number of faces shared with processor 525 = 7
    Number of faces shared with processor 141 = 238
    Number of faces shared with processor 547 = 285
    Number of faces shared with processor 163 = 992
    Number of faces shared with processor 92 = 1552
    Number of faces shared with processor 500 = 1383
    Number of faces shared with processor 501 = 4
    Number of faces shared with processor 117 = 136
    Number of processor patches = 11
    Number of processor faces = 6927
    Number of boundary faces = 2873

Processor 117
    Number of cells = 42535
    Number of points = 47843
    Number of faces shared with processor 525 = 12
    Number of faces shared with processor 141 = 3484
    Number of faces shared with processor 142 = 58
[...]
Processor 888: field transfer
Processor 889: field transfer
Processor 890: field transfer
Processor 891: field transfer
Processor 892: field transfer
Processor 893: field transfer
Processor 894: field transfer
Processor 895: field transfer
Processor 896: field transfer
Processor 897: field transfer
Processor 898: field transfer
Processor 899: field transfer
Processor 900: field transfer
Processor 901: field transfer
Processor 902: field transfer
Processor 903: field transfer
Processor 904: field transfer
Processor 905: field transfer
Processor 906: field transfer
Processor 907: field transfer
Processor 908: field transfer
Processor 909: field transfer
Processor 910: field transfer
Processor 911: field transfer
Processor 912: field transfer
Processor 913: field transfer
Processor 914: field transfer
Processor 915: field transfer
Processor 916: field transfer
Processor 917: field transfer
Processor 918: field transfer
Processor 919: field transfer
Processor 920: field transfer
Processor 921: field transfer
Processor 922: field transfer
Processor 923: field transfer
Processor 924: field transfer
Processor 925: field transfer
Processor 926: field transfer
Processor 927: field transfer
Processor 928: field transfer
Processor 929: field transfer
Processor 930: field transfer
Processor 931: field transfer
Processor 932: field transfer
Processor 933: field transfer
Processor 934: field transfer
Processor 935: field transfer
Processor 936: field transfer
Processor 937: field transfer
Processor 938: field transfer
Processor 939: field transfer
Processor 940: field transfer
Processor 941: field transfer
Processor 942: field transfer
Processor 943: field transfer
Processor 944: field transfer
Processor 945: field transfer
Processor 946: field transfer
Processor 947: field transfer
Processor 948: field transfer
Processor 949: field transfer
Processor 950: field transfer
Processor 951: field transfer
Processor 952: field transfer
Processor 953: field transfer
Processor 954: field transfer
Processor 955: field transfer
Processor 956: field transfer
Processor 957: field transfer
Processor 958: field transfer
Processor 959: field transfer
Processor 960: field transfer
Processor 961: field transfer
Processor 962: field transfer
Processor 963: field transfer
Processor 964: field transfer
Processor 965: field transfer
Processor 966: field transfer
Processor 967: field transfer
Processor 968: field transfer
Processor 969: field transfer
Processor 970: field transfer
Processor 971: field transfer
Processor 972: field transfer
Processor 973: field transfer
Processor 974: field transfer
Processor 975: field transfer
Processor 976: field transfer
Processor 977: field transfer
Processor 978: field transfer
Processor 979: field transfer
Processor 980: field transfer
Processor 981: field transfer
Processor 982: field transfer
Processor 983: field transfer
Processor 984: field transfer
Processor 985: field transfer
Processor 986: field transfer
Processor 987: field transfer
Processor 988: field transfer
Processor 989: field transfer
Processor 990: field transfer
Processor 991: field transfer
Processor 992: field transfer
Processor 993: field transfer
Processor 994: field transfer
Processor 995: field transfer
Processor 996: field transfer
Processor 997: field transfer
Processor 998: field transfer
Processor 999: field transfer
Processor 1000: field transfer
Processor 1001: field transfer
Processor 1002: field transfer
Processor 1003: field transfer
Processor 1004: field transfer
Processor 1005: field transfer
Processor 1006: field transfer
Processor 1007: field transfer
Processor 1008: field transfer
Processor 1009: field transfer
Processor 1010: field transfer
Processor 1011: field transfer
Processor 1012: field transfer
Processor 1013: field transfer
Processor 1014: field transfer
Processor 1015: field transfer
Processor 1016: field transfer
Processor 1017: field transfer
Processor 1018: field transfer
Processor 1019: field transfer
Processor 1020: field transfer
Processor 1021: field transfer
Processor 1022: field transfer
Processor 1023: field transfer
Processor 1024: field transfer
Processor 1025: field transfer
Processor 1026: field transfer
Processor 1027: field transfer
Processor 1028: field transfer
Processor 1029: field transfer
Processor 1030: field transfer
Processor 1031: field transfer
Processor 1032: field transfer
Processor 1033: field transfer
Processor 1034: field transfer
Processor 1035: field transfer
Processor 1036: field transfer
Processor 1037: field transfer
Processor 1038: field transfer
Processor 1039: field transfer
Processor 1040: field transfer
Processor 1041: field transfer
Processor 1042: field transfer
Processor 1043: field transfer
Processor 1044: field transfer
Processor 1045: field transfer
Processor 1046: field transfer
Processor 1047: field transfer
Processor 1048: field transfer
Processor 1049: field transfer
Processor 1050: field transfer
Processor 1051: field transfer
Processor 1052: field transfer
Processor 1053: field transfer
Processor 1054: field transfer
Processor 1055: field transfer
Processor 1056: field transfer
Processor 1057: field transfer
Processor 1058: field transfer
Processor 1059: field transfer
Processor 1060: field transfer
Processor 1061: field transfer
Processor 1062: field transfer
Processor 1063: field transfer
Processor 1064: field transfer
Processor 1065: field transfer
Processor 1066: field transfer
Processor 1067: field transfer
Processor 1068: field transfer
Processor 1069: field transfer
Processor 1070: field transfer
Processor 1071: field transfer
Processor 1072: field transfer
Processor 1073: field transfer
Processor 1074: field transfer
Processor 1075: field transfer
Processor 1076: field transfer
Processor 1077: field transfer
Processor 1078: field transfer
Processor 1079: field transfer
Processor 1080: field transfer
Processor 1081: field transfer
Processor 1082: field transfer
Processor 1083: field transfer
Processor 1084: field transfer
Processor 1085: field transfer
Processor 1086: field transfer
Processor 1087: field transfer
Processor 1088: field transfer
Processor 1089: field transfer
Processor 1090: field transfer
Processor 1091: field transfer
Processor 1092: field transfer
Processor 1093: field transfer
Processor 1094: field transfer
Processor 1095: field transfer
Processor 1096: field transfer
Processor 1097: field transfer
Processor 1098: field transfer
Processor 1099: field transfer
Processor 1100: field transfer
Processor 1101: field transfer
Processor 1102: field transfer
Processor 1103: field transfer
Processor 1104: field transfer
Processor 1105: field transfer
Processor 1106: field transfer
Processor 1107: field transfer
Processor 1108: field transfer
Processor 1109: field transfer
Processor 1110: field transfer
Processor 1111: field transfer
Processor 1112: field transfer
Processor 1113: field transfer
Processor 1114: field transfer
Processor 1115: field transfer
Processor 1116: field transfer
Processor 1117: field transfer
Processor 1118: field transfer
Processor 1119: field transfer
Processor 1120: field transfer
Processor 1121: field transfer
Processor 1122: field transfer
Processor 1123: field transfer
Processor 1124: field transfer
Processor 1125: field transfer
Processor 1126: field transfer
Processor 1127: field transfer
Processor 1128: field transfer
Processor 1129: field transfer
Processor 1130: field transfer
Processor 1131: field transfer
Processor 1132: field transfer
Processor 1133: field transfer
Processor 1134: field transfer
Processor 1135: field transfer
Processor 1136: field transfer
Processor 1137: field transfer
Processor 1138: field transfer
Processor 1139: field transfer
Processor 1140: field transfer
Processor 1141: field transfer
Processor 1142: field transfer
Processor 1143: field transfer
Processor 1144: field transfer
Processor 1145: field transfer
Processor 1146: field transfer
Processor 1147: field transfer
Processor 1148: field transfer
Processor 1149: field transfer
Processor 1150: field transfer
Processor 1151: field transfer
Processor 1152: field transfer
Processor 1153: field transfer
Processor 1154: field transfer
Processor 1155: field transfer
Processor 1156: field transfer
Processor 1157: field transfer
Processor 1158: field transfer
Processor 1159: field transfer
Processor 1160: field transfer
Processor 1161: field transfer
Processor 1162: field transfer
Processor 1163: field transfer
Processor 1164: field transfer
Processor 1165: field transfer
Processor 1166: field transfer
Processor 1167: field transfer
Processor 1168: field transfer
Processor 1169: field transfer
Processor 1170: field transfer
Processor 1171: field transfer
Processor 1172: field transfer
Processor 1173: field transfer
Processor 1174: field transfer
Processor 1175: field transfer
Processor 1176: field transfer
Processor 1177: field transfer
Processor 1178: field transfer
Processor 1179: field transfer
Processor 1180: field transfer
Processor 1181: field transfer
Processor 1182: field transfer
Processor 1183: field transfer
Processor 1184: field transfer
Processor 1185: field transfer
Processor 1186: field transfer
Processor 1187: field transfer
Processor 1188: field transfer
Processor 1189: field transfer
Processor 1190: field transfer
Processor 1191: field transfer
Processor 1192: field transfer
Processor 1193: field transfer
Processor 1194: field transfer
Processor 1195: field transfer
Processor 1196: field transfer
Processor 1197: field transfer
Processor 1198: field transfer
Processor 1199: field transfer
Processor 1200: field transfer
Processor 1201: field transfer
Processor 1202: field transfer
Processor 1203: field transfer
Processor 1204: field transfer
Processor 1205: field transfer
Processor 1206: field transfer
Processor 1207: field transfer
Processor 1208: field transfer
Processor 1209: field transfer
Processor 1210: field transfer
Processor 1211: field transfer
Processor 1212: field transfer
Processor 1213: field transfer
Processor 1214: field transfer
Processor 1215: field transfer
Processor 1216: field transfer
Processor 1217: field transfer
Processor 1218: field transfer
Processor 1219: field transfer
Processor 1220: field transfer
Processor 1221: field transfer
Processor 1222: field transfer
Processor 1223: field transfer
Processor 1224: field transfer
Processor 1225: field transfer
Processor 1226: field transfer
Processor 1227: field transfer
Processor 1228: field transfer
Processor 1229: field transfer
Processor 1230: field transfer
Processor 1231: field transfer
Processor 1232: field transfer
Processor 1233: field transfer
Processor 1234: field transfer
Processor 1235: field transfer
Processor 1236: field transfer
Processor 1237: field transfer
Processor 1238: field transfer
Processor 1239: field transfer
Processor 1240: field transfer
Processor 1241: field transfer
Processor 1242: field transfer
Processor 1243: field transfer
Processor 1244: field transfer
Processor 1245: field transfer
Processor 1246: field transfer
Processor 1247: field transfer
Processor 1248: field transfer
Processor 1249: field transfer
Processor 1250: field transfer
Processor 1251: field transfer
Processor 1252: field transfer
Processor 1253: field transfer
Processor 1254: field transfer
Processor 1255: field transfer
Processor 1256: field transfer
Processor 1257: field transfer
Processor 1258: field transfer
Processor 1259: field transfer
Processor 1260: field transfer
Processor 1261: field transfer
Processor 1262: field transfer
Processor 1263: field transfer
Processor 1264: field transfer
Processor 1265: field transfer
Processor 1266: field transfer
Processor 1267: field transfer
Processor 1268: field transfer
Processor 1269: field transfer
Processor 1270: field transfer
Processor 1271: field transfer
Processor 1272: field transfer
Processor 1273: field transfer
Processor 1274: field transfer
Processor 1275: field transfer
Processor 1276: field transfer
Processor 1277: field transfer
Processor 1278: field transfer
Processor 1279: field transfer
Processor 1280: field transfer
Processor 1281: field transfer
Processor 1282: field transfer
Processor 1283: field transfer
Processor 1284: field transfer
Processor 1285: field transfer
Processor 1286: field transfer
Processor 1287: field transfer
Processor 1288: field transfer
Processor 1289: field transfer
Processor 1290: field transfer
Processor 1291: field transfer
Processor 1292: field transfer
Processor 1293: field transfer
Processor 1294: field transfer
Processor 1295: field transfer
Processor 1296: field transfer
Processor 1297: field transfer
Processor 1298: field transfer
Processor 1299: field transfer
Processor 1300: field transfer
Processor 1301: field transfer
Processor 1302: field transfer
Processor 1303: field transfer
Processor 1304: field transfer
Processor 1305: field transfer
Processor 1306: field transfer
Processor 1307: field transfer
Processor 1308: field transfer
Processor 1309: field transfer
Processor 1310: field transfer
Processor 1311: field transfer
Processor 1312: field transfer
Processor 1313: field transfer
Processor 1314: field transfer
Processor 1315: field transfer
Processor 1316: field transfer
Processor 1317: field transfer
Processor 1318: field transfer
Processor 1319: field transfer
Processor 1320: field transfer
Processor 1321: field transfer
Processor 1322: field transfer
Processor 1323: field transfer
Processor 1324: field transfer
Processor 1325: field transfer
Processor 1326: field transfer
Processor 1327: field transfer
Processor 1328: field transfer
Processor 1329: field transfer
Processor 1330: field transfer
Processor 1331: field transfer
Processor 1332: field transfer
Processor 1333: field transfer
Processor 1334: field transfer
Processor 1335: field transfer
Processor 1336: field transfer
Processor 1337: field transfer
Processor 1338: field transfer
Processor 1339: field transfer
Processor 1340: field transfer
Processor 1341: field transfer
Processor 1342: field transfer
Processor 1343: field transfer
Processor 1344: field transfer
Processor 1345: field transfer
Processor 1346: field transfer
Processor 1347: field transfer
Processor 1348: field transfer
Processor 1349: field transfer
Processor 1350: field transfer
Processor 1351: field transfer
Processor 1352: field transfer
Processor 1353: field transfer
Processor 1354: field transfer
Processor 1355: field transfer
Processor 1356: field transfer
Processor 1357: field transfer
Processor 1358: field transfer
Processor 1359: field transfer
Processor 1360: field transfer
Processor 1361: field transfer
Processor 1362: field transfer
Processor 1363: field transfer
Processor 1364: field transfer
Processor 1365: field transfer
Processor 1366: field transfer
Processor 1367: field transfer
Processor 1368: field transfer
Processor 1369: field transfer
Processor 1370: field transfer
Processor 1371: field transfer
Processor 1372: field transfer
Processor 1373: field transfer
Processor 1374: field transfer
Processor 1375: field transfer
Processor 1376: field transfer
Processor 1377: field transfer
Processor 1378: field transfer
Processor 1379: field transfer
Processor 1380: field transfer
Processor 1381: field transfer
Processor 1382: field transfer
Processor 1383: field transfer
Processor 1384: field transfer
Processor 1385: field transfer
Processor 1386: field transfer
Processor 1387: field transfer
Processor 1388: field transfer
Processor 1389: field transfer
Processor 1390: field transfer
Processor 1391: field transfer
Processor 1392: field transfer
Processor 1393: field transfer
Processor 1394: field transfer
Processor 1395: field transfer
Processor 1396: field transfer
Processor 1397: field transfer
Processor 1398: field transfer
Processor 1399: field transfer
Processor 1400: field transfer
Processor 1401: field transfer
Processor 1402: field transfer
Processor 1403: field transfer
Processor 1404: field transfer
Processor 1405: field transfer
Processor 1406: field transfer
Processor 1407: field transfer
Processor 1408: field transfer
Processor 1409: field transfer
Processor 1410: field transfer
Processor 1411: field transfer
Processor 1412: field transfer
Processor 1413: field transfer
Processor 1414: field transfer
Processor 1415: field transfer
Processor 1416: field transfer
Processor 1417: field transfer
Processor 1418: field transfer
Processor 1419: field transfer
Processor 1420: field transfer
Processor 1421: field transfer
Processor 1422: field transfer
Processor 1423: field transfer
Processor 1424: field transfer
Processor 1425: field transfer
Processor 1426: field transfer
Processor 1427: field transfer
Processor 1428: field transfer
Processor 1429: field transfer
Processor 1430: field transfer
Processor 1431: field transfer
Processor 1432: field transfer
Processor 1433: field transfer
Processor 1434: field transfer
Processor 1435: field transfer
Processor 1436: field transfer
Processor 1437: field transfer
Processor 1438: field transfer
Processor 1439: field transfer
Processor 1440: field transfer
Processor 1441: field transfer
Processor 1442: field transfer
Processor 1443: field transfer
Processor 1444: field transfer
Processor 1445: field transfer
Processor 1446: field transfer
Processor 1447: field transfer
Processor 1448: field transfer
Processor 1449: field transfer
Processor 1450: field transfer
Processor 1451: field transfer
Processor 1452: field transfer
Processor 1453: field transfer
Processor 1454: field transfer
Processor 1455: field transfer
Processor 1456: field transfer
Processor 1457: field transfer
Processor 1458: field transfer
Processor 1459: field transfer
Processor 1460: field transfer
Processor 1461: field transfer
Processor 1462: field transfer
Processor 1463: field transfer
Processor 1464: field transfer
Processor 1465: field transfer
Processor 1466: field transfer
Processor 1467: field transfer
Processor 1468: field transfer
Processor 1469: field transfer
Processor 1470: field transfer
Processor 1471: field transfer
Processor 1472: field transfer
Processor 1473: field transfer
Processor 1474: field transfer
Processor 1475: field transfer
Processor 1476: field transfer
Processor 1477: field transfer
Processor 1478: field transfer
Processor 1479: field transfer
Processor 1480: field transfer
Processor 1481: field transfer
Processor 1482: field transfer
Processor 1483: field transfer
Processor 1484: field transfer
Processor 1485: field transfer
Processor 1486: field transfer
Processor 1487: field transfer
Processor 1488: field transfer
Processor 1489: field transfer
Processor 1490: field transfer
Processor 1491: field transfer
Processor 1492: field transfer
Processor 1493: field transfer
Processor 1494: field transfer
Processor 1495: field transfer
Processor 1496: field transfer
Processor 1497: field transfer
Processor 1498: field transfer
Processor 1499: field transfer
Processor 1500: field transfer
Processor 1501: field transfer
Processor 1502: field transfer
Processor 1503: field transfer
Processor 1504: field transfer
Processor 1505: field transfer
Processor 1506: field transfer
Processor 1507: field transfer
Processor 1508: field transfer
Processor 1509: field transfer
Processor 1510: field transfer
Processor 1511: field transfer
Processor 1512: field transfer
Processor 1513: field transfer
Processor 1514: field transfer
Processor 1515: field transfer
Processor 1516: field transfer
Processor 1517: field transfer
Processor 1518: field transfer
Processor 1519: field transfer
Processor 1520: field transfer
Processor 1521: field transfer
Processor 1522: field transfer
Processor 1523: field transfer
Processor 1524: field transfer
Processor 1525: field transfer
Processor 1526: field transfer
Processor 1527: field transfer
Processor 1528: field transfer
Processor 1529: field transfer
Processor 1530: field transfer
Processor 1531: field transfer
Processor 1532: field transfer
Processor 1533: field transfer
Processor 1534: field transfer
Processor 1535: field transfer

End

