/*---------------------------------------------------------------------------*\
| =========                 |                                                 |
| \\      /  F ield         | OpenFOAM: The Open Source CFD Toolbox           |
|  \\    /   O peration     | Version:  2412                                  |
|   \\  /    A nd           | Website:  www.openfoam.com                      |
|    \\/     M anipulation  |                                                 |
\*---------------------------------------------------------------------------*/
Build  : _8dbc61e11c-20241220 OPENFOAM=2412 version=v2412
Arch   : "LSB;label=32;scalar=64"
Exec   : /sw/apps/openfoam/v2412/aocc-4.2.0_tp/OpenFOAM-v2412/platforms/linux64AmdDPInt32Opt/bin/applyBoundaryLayer -ybl 0.0450244 -parallel
Date   : Jun 03 2025
Time   : 21:26:17
Host   : mnode024
PID    : 39590
I/O    : uncollated
Case   : /mosella/w5/schulzel/hpc/incompressible/simpleFoam/occDrivAerStaticMesh_c_1536
nProcs : 1536
Hosts  :
(
    (mnode024 192)
    (mnode025 192)
    (mnode026 192)
    (mnode027 192)
    (mnode028 192)
    (mnode051 192)
    (mnode100 192)
    (mnode101 192)
)
Pstream initialized with:
    floatTransfer      : false
    maxCommsSize       : 0
    nProcsSimpleSum    : 0
    nonBlockingExchange: 0 (tuning: 0)
    exchange algorithm : 0
    commsType          : nonBlocking
    polling iterations : 0
trapFpe: Floating point exception trapping enabled (FOAM_SIGFPE).
fileModificationChecking : Monitoring run-time modified files using timeStampMaster (fileModificationSkew 5, maxFileModificationPolls 20)
allowSystemOperations : Allowing user-supplied system call operations

// * * * * * * * * * * * * * * * * * * * * * * * * * * * * * * * * * * * * * //
Create time

Create mesh for time = 0

Reading field U

Calculating wall distance field
Selecting patchDistMethod meshWave

Creating boundary-layer for U of thickness 0.0450244 m

Creating mask field
Setting boundary layer velocity

Writing U


ExecutionTime = 4.21 s  ClockTime = 5 s

End

Finalising parallel run
