/*---------------------------------------------------------------------------*\
| =========                 |                                                 |
| \\      /  F ield         | OpenFOAM: The Open Source CFD Toolbox           |
|  \\    /   O peration     | Version:  2412                                  |
|   \\  /    A nd           | Website:  www.openfoam.com                      |
|    \\/     M anipulation  |                                                 |
\*---------------------------------------------------------------------------*/
Build  : _8dbc61e11c-20241220 OPENFOAM=2412 version=v2412
Arch   : "LSB;label=32;scalar=64"
Exec   : decomposePar -constant
Date   : Jun 15 2025
Time   : 08:45:02
Host   : 920B-node98
PID    : 2088446
I/O    : uncollated
Case   : /home/p00925941/OpenFOAM/cases/occDrivAerStaticMesh/run/110M/2048-hierarchical-32x16x4/case
nProcs : 1
trapFpe: Floating point exception trapping enabled (FOAM_SIGFPE).
fileModificationChecking : Monitoring run-time modified files using timeStampMaster (fileModificationSkew 5, maxFileModificationPolls 20)
allowSystemOperations : Allowing user-supplied system call operations

// * * * * * * * * * * * * * * * * * * * * * * * * * * * * * * * * * * * * * //
Create time



Decomposing mesh

Create mesh

Calculating distribution of cells
Decomposition method hierarchical [2048] (region region0)

Finished decomposition in 105.07 s

Calculating original mesh data

Distributing cells to processors

Distributing faces to processors

Distributing points to processors

Constructing processor meshes

Processor 0
    Number of cells = 59033
    Number of points = 81824
    Number of faces shared with processor 512 = 22205
    Number of faces shared with processor 1 = 325
    Number of faces shared with processor 32 = 499
    Number of processor patches = 3
    Number of processor faces = 23029
    Number of boundary faces = 21509

Processor 1
    Number of cells = 59033
    Number of points = 68271
    Number of faces shared with processor 0 = 325
    Number of faces shared with processor 1024 = 407
    Number of faces shared with processor 512 = 358
    Number of faces shared with processor 513 = 3029
    Number of faces shared with processor 2 = 2247
    Number of faces shared with processor 32 = 186
    Number of faces shared with processor 544 = 138
    Number of faces shared with processor 33 = 885
    Number of faces shared with processor 34 = 58
    Number of processor patches = 9
    Number of processor faces = 7633
    Number of boundary faces = 5700

Processor 2
    Number of cells = 59033
    Number of points = 68367
    Number of faces shared with processor 513 = 577
    Number of faces shared with processor 1 = 2247
    Number of faces shared with processor 1026 = 4
    Number of faces shared with processor 514 = 1885
    Number of faces shared with processor 3 = 2871
    Number of faces shared with processor 515 = 224
    Number of faces shared with processor 5 = 4
    Number of faces shared with processor 34 = 2617
    Number of processor patches = 8
    Number of processor faces = 10429
    Number of boundary faces = 3317

Processor 3
    Number of cells = 59033
    Number of points = 71356
    Number of faces shared with processor 2 = 2871
    Number of faces shared with processor 515 = 1373
    Number of faces shared with processor 4 = 3014
    Number of faces shared with processor 516 = 325
    Number of faces shared with processor 5 = 5
    Number of faces shared with processor 34 = 362
    Number of faces shared with processor 35 = 3064
    Number of processor patches = 7
    Number of processor faces = 11014
    Number of boundary faces = 4509

Processor 4
    Number of cells = 59033
    Number of points = 69461
    Number of faces shared with processor 3 = 3014
    Number of faces shared with processor 516 = 1691
    Number of faces shared with processor 5 = 2968
    Number of faces shared with processor 35 = 148
    Number of faces shared with processor 36 = 397
    Number of faces shared with processor 37 = 180
    Number of processor patches = 6
    Number of processor faces = 8398
    Number of boundary faces = 6196

Processor 5
    Number of cells = 59033
    Number of points = 71491
    Number of faces shared with processor 2 = 4
    Number of faces shared with processor 3 = 5
    Number of faces shared with processor 4 = 2968
    Number of faces shared with processor 516 = 434
    Number of faces shared with processor 1029 = 4
    Number of faces shared with processor 517 = 1356
    Number of faces shared with processor 518 = 2
    Number of faces shared with processor 6 = 2574
    Number of faces shared with processor 7 = 4
    Number of faces shared with processor 37 = 3243
    Number of faces shared with processor 38 = 468
    Number of processor patches = 11
    Number of processor faces = 11062
    Number of boundary faces = 4374

Processor 6
    Number of cells = 59033
    Number of points = 68177
    Number of faces shared with processor 5 = 2574
    Number of faces shared with processor 517 = 342
    Number of faces shared with processor 518 = 1690
    Number of faces shared with processor 7 = 2475
    Number of faces shared with processor 519 = 396
    Number of faces shared with processor 38 = 2626
    Number of faces shared with processor 39 = 86
    Number of processor patches = 7
    Number of processor faces = 10189
    Number of boundary faces = 3227

Processor 7
    Number of cells = 59033
    Number of points = 67340
    Number of faces shared with processor 5 = 4
    Number of faces shared with processor 518 = 1
    Number of faces shared with processor 6 = 2475
    Number of faces shared with processor 1031 = 4
    Number of faces shared with processor 519 = 2010
    Number of faces shared with processor 520 = 1
    Number of faces shared with processor 8 = 2563
    Number of faces shared with processor 9 = 4
    Number of faces shared with processor 39 = 1435
    Number of processor patches = 9
    Number of processor faces = 8497
    Number of boundary faces = 4024

Processor 8
    Number of cells = 59033
    Number of points = 67336
    Number of faces shared with processor 7 = 2563
    Number of faces shared with processor 519 = 97
    Number of faces shared with processor 520 = 1954
    Number of faces shared with processor 9 = 2162
    Number of faces shared with processor 40 = 1463
    Number of faces shared with processor 41 = 525
    Number of processor patches = 6
    Number of processor faces = 8764
    Number of boundary faces = 3899

Processor 9
    Number of cells = 59033
    Number of points = 67432
    Number of faces shared with processor 7 = 4
    Number of faces shared with processor 520 = 166
    Number of faces shared with processor 8 = 2162
    Number of faces shared with processor 521 = 1757
    Number of faces shared with processor 10 = 2628
    Number of faces shared with processor 522 = 1
    Number of faces shared with processor 11 = 4
    Number of faces shared with processor 41 = 1505
    Number of faces shared with processor 42 = 287
    Number of processor patches = 9
    Number of processor faces = 8514
    Number of boundary faces = 3619

Processor 10
    Number of cells = 59033
    Number of points = 66851
    Number of faces shared with processor 521 = 166
    Number of faces shared with processor 9 = 2628
    Number of faces shared with processor 522 = 1603
    Number of faces shared with processor 523 = 164
    Number of faces shared with processor 11 = 2573
    Number of faces shared with processor 42 = 1570
    Number of faces shared with processor 43 = 88
    Number of processor patches = 7
    Number of processor faces = 8792
    Number of boundary faces = 3221

Processor 11
    Number of cells = 59033
    Number of points = 67154
    Number of faces shared with processor 9 = 4
    Number of faces shared with processor 10 = 2573
    Number of faces shared with processor 522 = 2
    Number of faces shared with processor 523 = 1785
    Number of faces shared with processor 524 = 18
    Number of faces shared with processor 12 = 2532
    Number of faces shared with processor 43 = 1557
    Number of faces shared with processor 44 = 54
    Number of processor patches = 8
    Number of processor faces = 8525
    Number of boundary faces = 3660

Processor 12
    Number of cells = 59033
    Number of points = 67299
    Number of faces shared with processor 523 = 1
    Number of faces shared with processor 11 = 2532
    Number of faces shared with processor 524 = 1763
    Number of faces shared with processor 13 = 2484
    Number of faces shared with processor 525 = 63
    Number of faces shared with processor 14 = 4
    Number of faces shared with processor 44 = 1669
    Number of faces shared with processor 45 = 40
    Number of processor patches = 8
    Number of processor faces = 8556
    Number of boundary faces = 3710

Processor 13
    Number of cells = 59033
    Number of points = 67352
    Number of faces shared with processor 12 = 2484
    Number of faces shared with processor 525 = 1859
    Number of faces shared with processor 14 = 2378
    Number of faces shared with processor 45 = 1618
    Number of processor patches = 4
    Number of processor faces = 8339
    Number of boundary faces = 3926

Processor 14
    Number of cells = 59033
    Number of points = 66938
    Number of faces shared with processor 12 = 4
    Number of faces shared with processor 525 = 127
    Number of faces shared with processor 13 = 2378
    Number of faces shared with processor 526 = 1659
    Number of faces shared with processor 527 = 31
    Number of faces shared with processor 15 = 2494
    Number of faces shared with processor 45 = 142
    Number of faces shared with processor 46 = 1535
    Number of faces shared with processor 47 = 120
    Number of processor patches = 9
    Number of processor faces = 8490
    Number of boundary faces = 3549

Processor 15
    Number of cells = 59033
    Number of points = 67166
    Number of faces shared with processor 526 = 1
    Number of faces shared with processor 14 = 2494
    Number of faces shared with processor 1039 = 1
    Number of faces shared with processor 527 = 1795
    Number of faces shared with processor 16 = 2345
    Number of faces shared with processor 528 = 65
    Number of faces shared with processor 17 = 4
    Number of faces shared with processor 47 = 1638
    Number of faces shared with processor 48 = 74
    Number of processor patches = 9
    Number of processor faces = 8417
    Number of boundary faces = 3689

Processor 16
    Number of cells = 59033
    Number of points = 67171
    Number of faces shared with processor 15 = 2345
    Number of faces shared with processor 528 = 1725
    Number of faces shared with processor 17 = 2273
    Number of faces shared with processor 18 = 4
    Number of faces shared with processor 48 = 1702
    Number of processor patches = 5
    Number of processor faces = 8049
    Number of boundary faces = 3942

Processor 17
    Number of cells = 59033
    Number of points = 66684
    Number of faces shared with processor 15 = 4
    Number of faces shared with processor 16 = 2273
    Number of faces shared with processor 528 = 408
    Number of faces shared with processor 529 = 1479
    Number of faces shared with processor 18 = 3568
    Number of faces shared with processor 20 = 4
    Number of faces shared with processor 48 = 721
    Number of faces shared with processor 49 = 1200
    Number of processor patches = 8
    Number of processor faces = 9657
    Number of boundary faces = 2695

Processor 18
    Number of cells = 59033
    Number of points = 66754
    Number of faces shared with processor 528 = 3
    Number of faces shared with processor 16 = 4
    Number of faces shared with processor 529 = 67
    Number of faces shared with processor 17 = 3568
    Number of faces shared with processor 530 = 1394
    Number of faces shared with processor 19 = 3789
    Number of faces shared with processor 49 = 294
    Number of faces shared with processor 50 = 1078
    Number of processor patches = 8
    Number of processor faces = 10197
    Number of boundary faces = 2446

Processor 19
    Number of cells = 59033
    Number of points = 67936
    Number of faces shared with processor 530 = 314
    Number of faces shared with processor 18 = 3789
    Number of faces shared with processor 531 = 1232
    Number of faces shared with processor 532 = 71
    Number of faces shared with processor 20 = 4480
    Number of faces shared with processor 21 = 10
    Number of faces shared with processor 562 = 10
    Number of faces shared with processor 50 = 308
    Number of faces shared with processor 563 = 72
    Number of faces shared with processor 51 = 1963
    Number of processor patches = 10
    Number of processor faces = 12249
    Number of boundary faces = 2087

Processor 20
    Number of cells = 59033
    Number of points = 68292
    Number of faces shared with processor 17 = 4
    Number of faces shared with processor 19 = 4480
    Number of faces shared with processor 532 = 1199
    Number of faces shared with processor 533 = 127
    Number of faces shared with processor 21 = 4380
    Number of faces shared with processor 534 = 1
    Number of faces shared with processor 23 = 4
    Number of faces shared with processor 563 = 3
    Number of faces shared with processor 51 = 114
    Number of faces shared with processor 564 = 252
    Number of faces shared with processor 52 = 1862
    Number of faces shared with processor 565 = 4
    Number of faces shared with processor 53 = 124
    Number of processor patches = 13
    Number of processor faces = 12554
    Number of boundary faces = 2023

Processor 21
    Number of cells = 59033
    Number of points = 68028
    Number of faces shared with processor 19 = 10
    Number of faces shared with processor 20 = 4380
    Number of faces shared with processor 533 = 1299
    Number of faces shared with processor 534 = 79
    Number of faces shared with processor 22 = 3881
    Number of faces shared with processor 535 = 4
    Number of faces shared with processor 23 = 6
    Number of faces shared with processor 565 = 36
    Number of faces shared with processor 53 = 1925
    Number of faces shared with processor 54 = 446
    Number of processor patches = 10
    Number of processor faces = 12066
    Number of boundary faces = 2256

Processor 22
    Number of cells = 59033
    Number of points = 66766
    Number of faces shared with processor 21 = 3881
    Number of faces shared with processor 534 = 1404
    Number of faces shared with processor 535 = 137
    Number of faces shared with processor 23 = 3348
    Number of faces shared with processor 54 = 1137
    Number of faces shared with processor 55 = 294
    Number of processor patches = 6
    Number of processor faces = 10201
    Number of boundary faces = 2440

Processor 23
    Number of cells = 59033
    Number of points = 66738
    Number of faces shared with processor 20 = 4
    Number of faces shared with processor 21 = 6
    Number of faces shared with processor 22 = 3348
    Number of faces shared with processor 534 = 1
    Number of faces shared with processor 535 = 1462
    Number of faces shared with processor 536 = 274
    Number of faces shared with processor 24 = 2408
    Number of faces shared with processor 25 = 4
    Number of faces shared with processor 55 = 1274
    Number of faces shared with processor 56 = 633
    Number of processor patches = 10
    Number of processor faces = 9414
    Number of boundary faces = 2843

Processor 24
    Number of cells = 59033
    Number of points = 67167
    Number of faces shared with processor 23 = 2408
    Number of faces shared with processor 536 = 1777
    Number of faces shared with processor 25 = 2519
    Number of faces shared with processor 56 = 1650
    Number of processor patches = 4
    Number of processor faces = 8354
    Number of boundary faces = 3783

Processor 25
    Number of cells = 59033
    Number of points = 67201
    Number of faces shared with processor 23 = 4
    Number of faces shared with processor 536 = 32
    Number of faces shared with processor 24 = 2519
    Number of faces shared with processor 537 = 1693
    Number of faces shared with processor 26 = 2555
    Number of faces shared with processor 538 = 1
    Number of faces shared with processor 539 = 4
    Number of faces shared with processor 56 = 12
    Number of faces shared with processor 57 = 1716
    Number of processor patches = 9
    Number of processor faces = 8536
    Number of boundary faces = 3671

Processor 26
    Number of cells = 59033
    Number of points = 66818
    Number of faces shared with processor 537 = 150
    Number of faces shared with processor 25 = 2555
    Number of faces shared with processor 538 = 1549
    Number of faces shared with processor 27 = 1427
    Number of faces shared with processor 539 = 927
    Number of faces shared with processor 57 = 484
    Number of faces shared with processor 58 = 1276
    Number of faces shared with processor 59 = 924
    Number of processor patches = 8
    Number of processor faces = 9292
    Number of boundary faces = 2901

Processor 27
    Number of cells = 59033
    Number of points = 69215
    Number of faces shared with processor 26 = 1427
    Number of faces shared with processor 539 = 3718
    Number of faces shared with processor 28 = 543
    Number of faces shared with processor 540 = 657
    Number of faces shared with processor 59 = 1129
    Number of faces shared with processor 60 = 99
    Number of processor patches = 6
    Number of processor faces = 7573
    Number of boundary faces = 7364

Processor 28
    Number of cells = 59033
    Number of points = 75448
    Number of faces shared with processor 27 = 543
    Number of faces shared with processor 540 = 15423
    Number of faces shared with processor 541 = 16
    Number of faces shared with processor 29 = 522
    Number of faces shared with processor 60 = 444
    Number of processor patches = 5
    Number of processor faces = 16948
    Number of boundary faces = 15118

Processor 29
    Number of cells = 59033
    Number of points = 76863
    Number of faces shared with processor 540 = 1
    Number of faces shared with processor 28 = 522
    Number of faces shared with processor 541 = 16866
    Number of faces shared with processor 30 = 161
    Number of faces shared with processor 542 = 8
    Number of faces shared with processor 60 = 20
    Number of faces shared with processor 61 = 471
    Number of faces shared with processor 574 = 25
    Number of faces shared with processor 62 = 144
    Number of faces shared with processor 94 = 148
    Number of processor patches = 10
    Number of processor faces = 18366
    Number of boundary faces = 16491

Processor 30
    Number of cells = 59033
    Number of points = 89101
    Number of faces shared with processor 29 = 161
    Number of faces shared with processor 542 = 29083
    Number of faces shared with processor 31 = 51
    Number of faces shared with processor 574 = 1
    Number of faces shared with processor 62 = 1160
    Number of faces shared with processor 63 = 58
    Number of processor patches = 6
    Number of processor faces = 30514
    Number of boundary faces = 27773

Processor 31
    Number of cells = 59033
    Number of points = 85025
    Number of faces shared with processor 542 = 34
    Number of faces shared with processor 30 = 51
    Number of faces shared with processor 1055 = 317
    Number of faces shared with processor 543 = 23645
    Number of faces shared with processor 575 = 695
    Number of faces shared with processor 63 = 1650
    Number of processor patches = 6
    Number of processor faces = 26392
    Number of boundary faces = 22498

Processor 32
    Number of cells = 59033
    Number of points = 71253
    Number of faces shared with processor 0 = 499
    Number of faces shared with processor 1024 = 2
    Number of faces shared with processor 512 = 441
    Number of faces shared with processor 129 = 42
    Number of faces shared with processor 1 = 186
    Number of faces shared with processor 544 = 10717
    Number of faces shared with processor 33 = 36
    Number of faces shared with processor 64 = 1063
    Number of faces shared with processor 65 = 36
    Number of faces shared with processor 97 = 42
    Number of processor patches = 10
    Number of processor faces = 13064
    Number of boundary faces = 10585

Processor 33
    Number of cells = 59033
    Number of points = 71474
    Number of faces shared with processor 513 = 1408
    Number of faces shared with processor 1 = 885
    Number of faces shared with processor 1056 = 12
    Number of faces shared with processor 32 = 36
    Number of faces shared with processor 544 = 131
    Number of faces shared with processor 545 = 1404
    Number of faces shared with processor 546 = 186
    Number of faces shared with processor 34 = 579
    Number of faces shared with processor 577 = 351
    Number of faces shared with processor 65 = 3197
    Number of faces shared with processor 578 = 706
    Number of faces shared with processor 66 = 246
    Number of processor patches = 12
    Number of processor faces = 9141
    Number of boundary faces = 3793

Processor 34
    Number of cells = 59033
    Number of points = 75336
    Number of faces shared with processor 513 = 35
    Number of faces shared with processor 1 = 58
    Number of faces shared with processor 2 = 2617
    Number of faces shared with processor 514 = 1711
    Number of faces shared with processor 3 = 362
    Number of faces shared with processor 515 = 431
    Number of faces shared with processor 33 = 579
    Number of faces shared with processor 546 = 881
    Number of faces shared with processor 547 = 118
    Number of faces shared with processor 35 = 753
    Number of faces shared with processor 66 = 2670
    Number of faces shared with processor 578 = 416
    Number of processor patches = 12
    Number of processor faces = 10631
    Number of boundary faces = 7517

Processor 35
    Number of cells = 59033
    Number of points = 75540
    Number of faces shared with processor 3 = 3064
    Number of faces shared with processor 515 = 1062
    Number of faces shared with processor 4 = 148
    Number of faces shared with processor 516 = 216
    Number of faces shared with processor 34 = 753
    Number of faces shared with processor 547 = 849
    Number of faces shared with processor 36 = 598
    Number of faces shared with processor 548 = 329
    Number of faces shared with processor 66 = 76
    Number of faces shared with processor 67 = 2641
    Number of faces shared with processor 579 = 654
    Number of processor patches = 11
    Number of processor faces = 10390
    Number of boundary faces = 6868

Processor 36
    Number of cells = 59033
    Number of points = 70812
    Number of faces shared with processor 4 = 397
    Number of faces shared with processor 516 = 1053
    Number of faces shared with processor 35 = 598
    Number of faces shared with processor 548 = 860
    Number of faces shared with processor 37 = 1012
    Number of faces shared with processor 579 = 18
    Number of faces shared with processor 67 = 141
    Number of faces shared with processor 68 = 2470
    Number of faces shared with processor 580 = 2881
    Number of faces shared with processor 69 = 142
    Number of processor patches = 10
    Number of processor faces = 9572
    Number of boundary faces = 10509

Processor 37
    Number of cells = 59033
    Number of points = 75654
    Number of faces shared with processor 4 = 180
    Number of faces shared with processor 516 = 211
    Number of faces shared with processor 5 = 3243
    Number of faces shared with processor 517 = 1264
    Number of faces shared with processor 548 = 157
    Number of faces shared with processor 36 = 1012
    Number of faces shared with processor 549 = 825
    Number of faces shared with processor 38 = 521
    Number of faces shared with processor 581 = 204
    Number of faces shared with processor 69 = 2973
    Number of faces shared with processor 70 = 91
    Number of processor patches = 11
    Number of processor faces = 10681
    Number of boundary faces = 6745

Processor 38
    Number of cells = 59033
    Number of points = 73591
    Number of faces shared with processor 5 = 468
    Number of faces shared with processor 517 = 440
    Number of faces shared with processor 6 = 2626
    Number of faces shared with processor 518 = 932
    Number of faces shared with processor 549 = 130
    Number of faces shared with processor 37 = 521
    Number of faces shared with processor 550 = 933
    Number of faces shared with processor 39 = 542
    Number of faces shared with processor 70 = 3010
    Number of faces shared with processor 582 = 670
    Number of processor patches = 10
    Number of processor faces = 10272
    Number of boundary faces = 6332

Processor 39
    Number of cells = 59033
    Number of points = 68514
    Number of faces shared with processor 6 = 86
    Number of faces shared with processor 518 = 26
    Number of faces shared with processor 7 = 1435
    Number of faces shared with processor 519 = 861
    Number of faces shared with processor 550 = 48
    Number of faces shared with processor 38 = 542
    Number of faces shared with processor 551 = 1030
    Number of faces shared with processor 40 = 803
    Number of faces shared with processor 552 = 168
    Number of faces shared with processor 582 = 32
    Number of faces shared with processor 70 = 41
    Number of faces shared with processor 583 = 1661
    Number of faces shared with processor 71 = 1312
    Number of processor patches = 13
    Number of processor faces = 8045
    Number of boundary faces = 4071

Processor 40
    Number of cells = 59033
    Number of points = 66732
    Number of faces shared with processor 520 = 457
    Number of faces shared with processor 8 = 1463
    Number of faces shared with processor 39 = 803
    Number of faces shared with processor 552 = 970
    Number of faces shared with processor 41 = 99
    Number of faces shared with processor 583 = 109
    Number of faces shared with processor 71 = 254
    Number of faces shared with processor 72 = 2065
    Number of faces shared with processor 73 = 1073
    Number of processor patches = 9
    Number of processor faces = 7293
    Number of boundary faces = 3935

Processor 41
    Number of cells = 59033
    Number of points = 67181
    Number of faces shared with processor 520 = 562
    Number of faces shared with processor 8 = 525
    Number of faces shared with processor 521 = 1110
    Number of faces shared with processor 9 = 1505
    Number of faces shared with processor 552 = 218
    Number of faces shared with processor 40 = 99
    Number of faces shared with processor 553 = 1030
    Number of faces shared with processor 42 = 852
    Number of faces shared with processor 585 = 1752
    Number of faces shared with processor 73 = 2493
    Number of faces shared with processor 586 = 130
    Number of faces shared with processor 74 = 386
    Number of processor patches = 12
    Number of processor faces = 10662
    Number of boundary faces = 1977

Processor 42
    Number of cells = 59033
    Number of points = 67083
    Number of faces shared with processor 521 = 334
    Number of faces shared with processor 9 = 287
    Number of faces shared with processor 522 = 1437
    Number of faces shared with processor 10 = 1570
    Number of faces shared with processor 553 = 171
    Number of faces shared with processor 41 = 852
    Number of faces shared with processor 554 = 903
    Number of faces shared with processor 555 = 405
    Number of faces shared with processor 43 = 1286
    Number of faces shared with processor 586 = 3098
    Number of faces shared with processor 74 = 2225
    Number of processor patches = 11
    Number of processor faces = 12568
    Number of boundary faces = 665

Processor 43
    Number of cells = 59033
    Number of points = 66058
    Number of faces shared with processor 522 = 46
    Number of faces shared with processor 10 = 88
    Number of faces shared with processor 523 = 1056
    Number of faces shared with processor 11 = 1557
    Number of faces shared with processor 42 = 1286
    Number of faces shared with processor 555 = 1118
    Number of faces shared with processor 556 = 20
    Number of faces shared with processor 44 = 1320
    Number of faces shared with processor 586 = 17
    Number of faces shared with processor 74 = 61
    Number of faces shared with processor 587 = 2494
    Number of faces shared with processor 75 = 1904
    Number of faces shared with processor 76 = 156
    Number of processor patches = 13
    Number of processor faces = 11123
    Number of boundary faces = 858

Processor 44
    Number of cells = 59033
    Number of points = 64301
    Number of faces shared with processor 523 = 54
    Number of faces shared with processor 11 = 54
    Number of faces shared with processor 524 = 1168
    Number of faces shared with processor 12 = 1669
    Number of faces shared with processor 43 = 1320
    Number of faces shared with processor 556 = 947
    Number of faces shared with processor 557 = 67
    Number of faces shared with processor 45 = 1311
    Number of faces shared with processor 76 = 2772
    Number of processor patches = 9
    Number of processor faces = 9362
    Number of boundary faces = 882

Processor 45
    Number of cells = 59033
    Number of points = 64225
    Number of faces shared with processor 12 = 40
    Number of faces shared with processor 524 = 46
    Number of faces shared with processor 13 = 1618
    Number of faces shared with processor 525 = 1096
    Number of faces shared with processor 526 = 63
    Number of faces shared with processor 14 = 142
    Number of faces shared with processor 44 = 1311
    Number of faces shared with processor 557 = 1011
    Number of faces shared with processor 46 = 1159
    Number of faces shared with processor 77 = 2692
    Number of processor patches = 10
    Number of processor faces = 9178
    Number of boundary faces = 946

Processor 46
    Number of cells = 59033
    Number of points = 65931
    Number of faces shared with processor 526 = 1166
    Number of faces shared with processor 14 = 1535
    Number of faces shared with processor 557 = 182
    Number of faces shared with processor 45 = 1159
    Number of faces shared with processor 558 = 1144
    Number of faces shared with processor 559 = 213
    Number of faces shared with processor 47 = 1235
    Number of faces shared with processor 589 = 4
    Number of faces shared with processor 77 = 259
    Number of faces shared with processor 590 = 2592
    Number of faces shared with processor 78 = 1406
    Number of faces shared with processor 591 = 22
    Number of faces shared with processor 79 = 58
    Number of processor patches = 13
    Number of processor faces = 10975
    Number of boundary faces = 777

Processor 47
    Number of cells = 59033
    Number of points = 64132
    Number of faces shared with processor 526 = 58
    Number of faces shared with processor 14 = 120
    Number of faces shared with processor 527 = 924
    Number of faces shared with processor 15 = 1638
    Number of faces shared with processor 46 = 1235
    Number of faces shared with processor 559 = 1008
    Number of faces shared with processor 560 = 44
    Number of faces shared with processor 48 = 1298
    Number of faces shared with processor 591 = 154
    Number of faces shared with processor 79 = 2436
    Number of faces shared with processor 80 = 61
    Number of processor patches = 11
    Number of processor faces = 8976
    Number of boundary faces = 966

Processor 48
    Number of cells = 59033
    Number of points = 64136
    Number of faces shared with processor 527 = 38
    Number of faces shared with processor 15 = 74
    Number of faces shared with processor 16 = 1702
    Number of faces shared with processor 528 = 878
    Number of faces shared with processor 17 = 721
    Number of faces shared with processor 529 = 181
    Number of faces shared with processor 47 = 1298
    Number of faces shared with processor 560 = 1075
    Number of faces shared with processor 49 = 481
    Number of faces shared with processor 80 = 2515
    Number of processor patches = 10
    Number of processor faces = 8963
    Number of boundary faces = 989

Processor 49
    Number of cells = 59033
    Number of points = 69672
    Number of faces shared with processor 17 = 1200
    Number of faces shared with processor 529 = 836
    Number of faces shared with processor 18 = 294
    Number of faces shared with processor 530 = 186
    Number of faces shared with processor 560 = 184
    Number of faces shared with processor 48 = 481
    Number of faces shared with processor 561 = 824
    Number of faces shared with processor 50 = 791
    Number of faces shared with processor 562 = 570
    Number of faces shared with processor 592 = 84
    Number of faces shared with processor 80 = 1452
    Number of faces shared with processor 593 = 1616
    Number of faces shared with processor 81 = 2219
    Number of faces shared with processor 624 = 4
    Number of processor patches = 14
    Number of processor faces = 10741
    Number of boundary faces = 3006

Processor 50
    Number of cells = 59033
    Number of points = 70778
    Number of faces shared with processor 530 = 66
    Number of faces shared with processor 18 = 1078
    Number of faces shared with processor 19 = 308
    Number of faces shared with processor 49 = 791
    Number of faces shared with processor 562 = 1015
    Number of faces shared with processor 563 = 72
    Number of faces shared with processor 51 = 1075
    Number of faces shared with processor 81 = 74
    Number of faces shared with processor 82 = 1644
    Number of processor patches = 9
    Number of processor faces = 6123
    Number of boundary faces = 6093

Processor 51
    Number of cells = 59033
    Number of points = 72910
    Number of faces shared with processor 19 = 1963
    Number of faces shared with processor 20 = 114
    Number of faces shared with processor 50 = 1075
    Number of faces shared with processor 563 = 711
    Number of faces shared with processor 564 = 555
    Number of faces shared with processor 52 = 1209
    Number of faces shared with processor 82 = 326
    Number of faces shared with processor 595 = 467
    Number of faces shared with processor 83 = 2022
    Number of processor patches = 9
    Number of processor faces = 8442
    Number of boundary faces = 5829

Processor 52
    Number of cells = 59033
    Number of points = 69681
    Number of faces shared with processor 20 = 1862
    Number of faces shared with processor 51 = 1209
    Number of faces shared with processor 564 = 935
    Number of faces shared with processor 53 = 1319
    Number of faces shared with processor 83 = 16
    Number of faces shared with processor 84 = 639
    Number of faces shared with processor 596 = 225
    Number of faces shared with processor 85 = 87
    Number of processor patches = 8
    Number of processor faces = 6292
    Number of boundary faces = 7964

Processor 53
    Number of cells = 59033
    Number of points = 73002
    Number of faces shared with processor 20 = 124
    Number of faces shared with processor 21 = 1925
    Number of faces shared with processor 564 = 131
    Number of faces shared with processor 52 = 1319
    Number of faces shared with processor 565 = 739
    Number of faces shared with processor 54 = 1293
    Number of faces shared with processor 597 = 71
    Number of faces shared with processor 85 = 2420
    Number of faces shared with processor 86 = 135
    Number of processor patches = 9
    Number of processor faces = 8157
    Number of boundary faces = 5708

Processor 54
    Number of cells = 59033
    Number of points = 70531
    Number of faces shared with processor 533 = 21
    Number of faces shared with processor 21 = 446
    Number of faces shared with processor 534 = 107
    Number of faces shared with processor 22 = 1137
    Number of faces shared with processor 565 = 189
    Number of faces shared with processor 53 = 1293
    Number of faces shared with processor 566 = 948
    Number of faces shared with processor 55 = 1053
    Number of faces shared with processor 86 = 1260
    Number of processor patches = 9
    Number of processor faces = 6454
    Number of boundary faces = 5860

Processor 55
    Number of cells = 59033
    Number of points = 68120
    Number of faces shared with processor 534 = 144
    Number of faces shared with processor 22 = 294
    Number of faces shared with processor 535 = 676
    Number of faces shared with processor 23 = 1274
    Number of faces shared with processor 566 = 481
    Number of faces shared with processor 54 = 1053
    Number of faces shared with processor 567 = 1130
    Number of faces shared with processor 568 = 154
    Number of faces shared with processor 56 = 622
    Number of faces shared with processor 86 = 145
    Number of faces shared with processor 599 = 1422
    Number of faces shared with processor 87 = 1857
    Number of faces shared with processor 600 = 87
    Number of faces shared with processor 88 = 832
    Number of processor patches = 14
    Number of processor faces = 10171
    Number of boundary faces = 2218

Processor 56
    Number of cells = 59033
    Number of points = 64061
    Number of faces shared with processor 535 = 161
    Number of faces shared with processor 23 = 633
    Number of faces shared with processor 536 = 788
    Number of faces shared with processor 24 = 1650
    Number of faces shared with processor 25 = 12
    Number of faces shared with processor 55 = 622
    Number of faces shared with processor 568 = 1069
    Number of faces shared with processor 57 = 1383
    Number of faces shared with processor 88 = 2478
    Number of processor patches = 9
    Number of processor faces = 8796
    Number of boundary faces = 1008

Processor 57
    Number of cells = 59033
    Number of points = 64066
    Number of faces shared with processor 537 = 764
    Number of faces shared with processor 25 = 1716
    Number of faces shared with processor 538 = 155
    Number of faces shared with processor 26 = 484
    Number of faces shared with processor 568 = 21
    Number of faces shared with processor 56 = 1383
    Number of faces shared with processor 569 = 1057
    Number of faces shared with processor 570 = 14
    Number of faces shared with processor 58 = 758
    Number of faces shared with processor 88 = 59
    Number of faces shared with processor 89 = 2419
    Number of processor patches = 11
    Number of processor faces = 8830
    Number of boundary faces = 984

Processor 58
    Number of cells = 59033
    Number of points = 63929
    Number of faces shared with processor 538 = 414
    Number of faces shared with processor 26 = 1276
    Number of faces shared with processor 57 = 758
    Number of faces shared with processor 570 = 1055
    Number of faces shared with processor 89 = 1288
    Number of faces shared with processor 90 = 1706
    Number of faces shared with processor 91 = 1218
    Number of faces shared with processor 123 = 812
    Number of processor patches = 8
    Number of processor faces = 8527
    Number of boundary faces = 1015

Processor 59
    Number of cells = 59033
    Number of points = 64864
    Number of faces shared with processor 538 = 315
    Number of faces shared with processor 26 = 924
    Number of faces shared with processor 27 = 1129
    Number of faces shared with processor 539 = 2163
    Number of faces shared with processor 571 = 1180
    Number of faces shared with processor 60 = 210
    Number of faces shared with processor 603 = 33
    Number of faces shared with processor 91 = 3212
    Number of faces shared with processor 92 = 90
    Number of processor patches = 9
    Number of processor faces = 9256
    Number of boundary faces = 1184

Processor 60
    Number of cells = 59033
    Number of points = 65245
    Number of faces shared with processor 1051 = 9
    Number of faces shared with processor 27 = 99
    Number of faces shared with processor 539 = 189
    Number of faces shared with processor 1052 = 2082
    Number of faces shared with processor 28 = 444
    Number of faces shared with processor 540 = 1133
    Number of faces shared with processor 1053 = 68
    Number of faces shared with processor 29 = 20
    Number of faces shared with processor 541 = 46
    Number of faces shared with processor 571 = 21
    Number of faces shared with processor 59 = 210
    Number of faces shared with processor 572 = 1841
    Number of faces shared with processor 61 = 384
    Number of faces shared with processor 92 = 3688
    Number of processor patches = 14
    Number of processor faces = 10234
    Number of boundary faces = 1866

Processor 61
    Number of cells = 59033
    Number of points = 65455
    Number of faces shared with processor 1053 = 2212
    Number of faces shared with processor 29 = 471
    Number of faces shared with processor 541 = 1287
    Number of faces shared with processor 572 = 24
    Number of faces shared with processor 60 = 384
    Number of faces shared with processor 573 = 1789
    Number of faces shared with processor 92 = 102
    Number of faces shared with processor 605 = 42
    Number of faces shared with processor 93 = 3956
    Number of faces shared with processor 126 = 90
    Number of faces shared with processor 638 = 405
    Number of processor patches = 11
    Number of processor faces = 10762
    Number of boundary faces = 1748

Processor 62
    Number of cells = 59033
    Number of points = 84800
    Number of faces shared with processor 29 = 144
    Number of faces shared with processor 542 = 25
    Number of faces shared with processor 30 = 1160
    Number of faces shared with processor 574 = 23940
    Number of faces shared with processor 63 = 10
    Number of faces shared with processor 94 = 1277
    Number of faces shared with processor 95 = 62
    Number of faces shared with processor 127 = 22
    Number of processor patches = 8
    Number of processor faces = 26640
    Number of boundary faces = 23798

Processor 63
    Number of cells = 59033
    Number of points = 89153
    Number of faces shared with processor 542 = 29
    Number of faces shared with processor 30 = 58
    Number of faces shared with processor 31 = 1650
    Number of faces shared with processor 574 = 5
    Number of faces shared with processor 62 = 10
    Number of faces shared with processor 575 = 27651
    Number of faces shared with processor 95 = 1743
    Number of processor patches = 7
    Number of processor faces = 31146
    Number of boundary faces = 27436

Processor 64
    Number of cells = 59033
    Number of points = 71658
    Number of faces shared with processor 129 = 137
    Number of faces shared with processor 641 = 163
    Number of faces shared with processor 1056 = 1
    Number of faces shared with processor 32 = 1063
    Number of faces shared with processor 544 = 1884
    Number of faces shared with processor 1185 = 113
    Number of faces shared with processor 673 = 264
    Number of faces shared with processor 161 = 273
    Number of faces shared with processor 576 = 2016
    Number of faces shared with processor 1088 = 13
    Number of faces shared with processor 192 = 4
    Number of faces shared with processor 608 = 214
    Number of faces shared with processor 96 = 2958
    Number of processor patches = 13
    Number of processor faces = 9103
    Number of boundary faces = 5655

Processor 65
    Number of cells = 59033
    Number of points = 72672
    Number of faces shared with processor 32 = 36
    Number of faces shared with processor 544 = 242
    Number of faces shared with processor 33 = 3197
    Number of faces shared with processor 577 = 1250
    Number of faces shared with processor 578 = 394
    Number of faces shared with processor 66 = 254
    Number of faces shared with processor 609 = 175
    Number of faces shared with processor 97 = 3255
    Number of faces shared with processor 610 = 710
    Number of faces shared with processor 98 = 462
    Number of processor patches = 10
    Number of processor faces = 9975
    Number of boundary faces = 4550

Processor 66
    Number of cells = 59033
    Number of points = 72739
    Number of faces shared with processor 33 = 246
    Number of faces shared with processor 34 = 2670
    Number of faces shared with processor 35 = 76
    Number of faces shared with processor 65 = 254
    Number of faces shared with processor 578 = 472
    Number of faces shared with processor 67 = 346
    Number of faces shared with processor 98 = 3538
    Number of processor patches = 7
    Number of processor faces = 7602
    Number of boundary faces = 6358

Processor 67
    Number of cells = 59033
    Number of points = 72159
    Number of faces shared with processor 35 = 2641
    Number of faces shared with processor 36 = 141
    Number of faces shared with processor 66 = 346
    Number of faces shared with processor 579 = 779
    Number of faces shared with processor 68 = 763
    Number of faces shared with processor 580 = 446
    Number of faces shared with processor 98 = 24
    Number of faces shared with processor 99 = 2428
    Number of faces shared with processor 611 = 101
    Number of processor patches = 9
    Number of processor faces = 7669
    Number of boundary faces = 7777

Processor 68
    Number of cells = 59033
    Number of points = 70919
    Number of faces shared with processor 36 = 2470
    Number of faces shared with processor 67 = 763
    Number of faces shared with processor 580 = 2306
    Number of faces shared with processor 69 = 709
    Number of faces shared with processor 99 = 178
    Number of faces shared with processor 100 = 936
    Number of faces shared with processor 101 = 199
    Number of processor patches = 7
    Number of processor faces = 7561
    Number of boundary faces = 14283

Processor 69
    Number of cells = 59033
    Number of points = 73214
    Number of faces shared with processor 548 = 17
    Number of faces shared with processor 36 = 142
    Number of faces shared with processor 37 = 2973
    Number of faces shared with processor 68 = 709
    Number of faces shared with processor 580 = 568
    Number of faces shared with processor 581 = 703
    Number of faces shared with processor 70 = 459
    Number of faces shared with processor 613 = 327
    Number of faces shared with processor 101 = 2346
    Number of faces shared with processor 102 = 41
    Number of processor patches = 10
    Number of processor faces = 8285
    Number of boundary faces = 7271

Processor 70
    Number of cells = 59033
    Number of points = 73088
    Number of faces shared with processor 37 = 91
    Number of faces shared with processor 38 = 3010
    Number of faces shared with processor 39 = 41
    Number of faces shared with processor 69 = 459
    Number of faces shared with processor 582 = 521
    Number of faces shared with processor 583 = 72
    Number of faces shared with processor 71 = 256
    Number of faces shared with processor 102 = 3584
    Number of processor patches = 8
    Number of processor faces = 8034
    Number of boundary faces = 6292

Processor 71
    Number of cells = 59033
    Number of points = 71739
    Number of faces shared with processor 134 = 146
    Number of faces shared with processor 39 = 1312
    Number of faces shared with processor 40 = 254
    Number of faces shared with processor 70 = 256
    Number of faces shared with processor 583 = 6686
    Number of faces shared with processor 72 = 962
    Number of faces shared with processor 102 = 282
    Number of faces shared with processor 615 = 105
    Number of faces shared with processor 103 = 1263
    Number of processor patches = 9
    Number of processor faces = 11266
    Number of boundary faces = 2484

Processor 72
    Number of cells = 59033
    Number of points = 72866
    Number of faces shared with processor 649 = 13
    Number of faces shared with processor 137 = 20
    Number of faces shared with processor 40 = 2065
    Number of faces shared with processor 583 = 166
    Number of faces shared with processor 71 = 962
    Number of faces shared with processor 584 = 5125
    Number of faces shared with processor 73 = 82
    Number of faces shared with processor 615 = 14
    Number of faces shared with processor 103 = 93
    Number of faces shared with processor 616 = 1592
    Number of faces shared with processor 104 = 988
    Number of faces shared with processor 105 = 684
    Number of processor patches = 12
    Number of processor faces = 11804
    Number of boundary faces = 3601

Processor 73
    Number of cells = 59033
    Number of points = 67662
    Number of faces shared with processor 552 = 40
    Number of faces shared with processor 40 = 1073
    Number of faces shared with processor 41 = 2493
    Number of faces shared with processor 72 = 82
    Number of faces shared with processor 585 = 455
    Number of faces shared with processor 74 = 776
    Number of faces shared with processor 105 = 2652
    Number of faces shared with processor 618 = 2
    Number of faces shared with processor 106 = 354
    Number of processor patches = 9
    Number of processor faces = 7927
    Number of boundary faces = 4785

Processor 74
    Number of cells = 59033
    Number of points = 66840
    Number of faces shared with processor 41 = 386
    Number of faces shared with processor 42 = 2225
    Number of faces shared with processor 43 = 61
    Number of faces shared with processor 585 = 52
    Number of faces shared with processor 73 = 776
    Number of faces shared with processor 586 = 716
    Number of faces shared with processor 587 = 262
    Number of faces shared with processor 75 = 966
    Number of faces shared with processor 618 = 138
    Number of faces shared with processor 106 = 1534
    Number of processor patches = 10
    Number of processor faces = 7116
    Number of boundary faces = 4598

Processor 75
    Number of cells = 59033
    Number of points = 67268
    Number of faces shared with processor 43 = 1904
    Number of faces shared with processor 74 = 966
    Number of faces shared with processor 587 = 808
    Number of faces shared with processor 76 = 365
    Number of faces shared with processor 618 = 2
    Number of faces shared with processor 106 = 205
    Number of faces shared with processor 107 = 2881
    Number of faces shared with processor 620 = 171
    Number of faces shared with processor 108 = 572
    Number of processor patches = 9
    Number of processor faces = 7874
    Number of boundary faces = 4099

Processor 76
    Number of cells = 59033
    Number of points = 68764
    Number of faces shared with processor 555 = 55
    Number of faces shared with processor 43 = 156
    Number of faces shared with processor 556 = 1663
    Number of faces shared with processor 44 = 2772
    Number of faces shared with processor 587 = 352
    Number of faces shared with processor 75 = 365
    Number of faces shared with processor 588 = 632
    Number of faces shared with processor 589 = 57
    Number of faces shared with processor 77 = 926
    Number of faces shared with processor 108 = 1428
    Number of faces shared with processor 620 = 1446
    Number of processor patches = 11
    Number of processor faces = 9852
    Number of boundary faces = 5462

Processor 77
    Number of cells = 59033
    Number of points = 68454
    Number of faces shared with processor 556 = 8
    Number of faces shared with processor 557 = 475
    Number of faces shared with processor 45 = 2692
    Number of faces shared with processor 46 = 259
    Number of faces shared with processor 76 = 926
    Number of faces shared with processor 589 = 784
    Number of faces shared with processor 78 = 228
    Number of faces shared with processor 590 = 426
    Number of faces shared with processor 108 = 34
    Number of faces shared with processor 620 = 34
    Number of faces shared with processor 109 = 1463
    Number of faces shared with processor 621 = 1469
    Number of processor patches = 12
    Number of processor faces = 8798
    Number of boundary faces = 5047

Processor 78
    Number of cells = 59033
    Number of points = 68154
    Number of faces shared with processor 46 = 1406
    Number of faces shared with processor 77 = 228
    Number of faces shared with processor 590 = 1237
    Number of faces shared with processor 79 = 609
    Number of faces shared with processor 109 = 674
    Number of faces shared with processor 621 = 181
    Number of faces shared with processor 622 = 790
    Number of faces shared with processor 110 = 3599
    Number of faces shared with processor 623 = 77
    Number of faces shared with processor 111 = 430
    Number of processor patches = 10
    Number of processor faces = 9231
    Number of boundary faces = 4557

Processor 79
    Number of cells = 59033
    Number of points = 67188
    Number of faces shared with processor 46 = 58
    Number of faces shared with processor 47 = 2436
    Number of faces shared with processor 590 = 456
    Number of faces shared with processor 78 = 609
    Number of faces shared with processor 591 = 896
    Number of faces shared with processor 80 = 554
    Number of faces shared with processor 623 = 537
    Number of faces shared with processor 111 = 1786
    Number of faces shared with processor 624 = 265
    Number of faces shared with processor 112 = 331
    Number of processor patches = 10
    Number of processor faces = 7928
    Number of boundary faces = 4110

Processor 80
    Number of cells = 59033
    Number of points = 69779
    Number of faces shared with processor 559 = 18
    Number of faces shared with processor 47 = 61
    Number of faces shared with processor 560 = 716
    Number of faces shared with processor 48 = 2515
    Number of faces shared with processor 49 = 1452
    Number of faces shared with processor 591 = 355
    Number of faces shared with processor 79 = 554
    Number of faces shared with processor 592 = 909
    Number of faces shared with processor 81 = 67
    Number of faces shared with processor 624 = 2178
    Number of faces shared with processor 112 = 1543
    Number of processor patches = 11
    Number of processor faces = 10368
    Number of boundary faces = 4828

Processor 81
    Number of cells = 59033
    Number of points = 72933
    Number of faces shared with processor 49 = 2219
    Number of faces shared with processor 50 = 74
    Number of faces shared with processor 80 = 67
    Number of faces shared with processor 593 = 822
    Number of faces shared with processor 82 = 861
    Number of faces shared with processor 624 = 1983
    Number of faces shared with processor 112 = 521
    Number of faces shared with processor 625 = 428
    Number of faces shared with processor 113 = 2408
    Number of processor patches = 9
    Number of processor faces = 9383
    Number of boundary faces = 5108

Processor 82
    Number of cells = 59033
    Number of points = 74293
    Number of faces shared with processor 50 = 1644
    Number of faces shared with processor 51 = 326
    Number of faces shared with processor 81 = 861
    Number of faces shared with processor 594 = 572
    Number of faces shared with processor 595 = 358
    Number of faces shared with processor 83 = 1189
    Number of faces shared with processor 113 = 218
    Number of faces shared with processor 626 = 43
    Number of faces shared with processor 114 = 2485
    Number of faces shared with processor 115 = 155
    Number of faces shared with processor 627 = 214
    Number of processor patches = 11
    Number of processor faces = 8065
    Number of boundary faces = 7085

Processor 83
    Number of cells = 59033
    Number of points = 73816
    Number of faces shared with processor 51 = 2022
    Number of faces shared with processor 564 = 44
    Number of faces shared with processor 52 = 16
    Number of faces shared with processor 82 = 1189
    Number of faces shared with processor 595 = 863
    Number of faces shared with processor 84 = 529
    Number of faces shared with processor 596 = 881
    Number of faces shared with processor 115 = 1408
    Number of faces shared with processor 627 = 645
    Number of faces shared with processor 116 = 42
    Number of faces shared with processor 628 = 15
    Number of processor patches = 11
    Number of processor faces = 7654
    Number of boundary faces = 7507

Processor 84
    Number of cells = 59033
    Number of points = 68306
    Number of faces shared with processor 52 = 639
    Number of faces shared with processor 83 = 529
    Number of faces shared with processor 596 = 786
    Number of faces shared with processor 85 = 294
    Number of faces shared with processor 116 = 765
    Number of processor patches = 5
    Number of processor faces = 3013
    Number of boundary faces = 13023

Processor 85
    Number of cells = 59033
    Number of points = 73941
    Number of faces shared with processor 52 = 87
    Number of faces shared with processor 564 = 22
    Number of faces shared with processor 53 = 2420
    Number of faces shared with processor 84 = 294
    Number of faces shared with processor 596 = 877
    Number of faces shared with processor 597 = 916
    Number of faces shared with processor 86 = 502
    Number of faces shared with processor 116 = 65
    Number of faces shared with processor 628 = 27
    Number of faces shared with processor 629 = 411
    Number of faces shared with processor 117 = 1585
    Number of processor patches = 11
    Number of processor faces = 7206
    Number of boundary faces = 6820

Processor 86
    Number of cells = 59033
    Number of points = 72341
    Number of faces shared with processor 53 = 135
    Number of faces shared with processor 54 = 1260
    Number of faces shared with processor 55 = 145
    Number of faces shared with processor 597 = 331
    Number of faces shared with processor 85 = 502
    Number of faces shared with processor 598 = 409
    Number of faces shared with processor 87 = 1101
    Number of faces shared with processor 629 = 281
    Number of faces shared with processor 117 = 212
    Number of faces shared with processor 630 = 282
    Number of faces shared with processor 118 = 2199
    Number of faces shared with processor 119 = 56
    Number of processor patches = 12
    Number of processor faces = 6913
    Number of boundary faces = 6698

Processor 87
    Number of cells = 59033
    Number of points = 71843
    Number of faces shared with processor 55 = 1857
    Number of faces shared with processor 86 = 1101
    Number of faces shared with processor 599 = 1150
    Number of faces shared with processor 88 = 434
    Number of faces shared with processor 631 = 202
    Number of faces shared with processor 119 = 3313
    Number of faces shared with processor 632 = 1
    Number of faces shared with processor 120 = 321
    Number of processor patches = 8
    Number of processor faces = 8379
    Number of boundary faces = 5273

Processor 88
    Number of cells = 59033
    Number of points = 66932
    Number of faces shared with processor 55 = 832
    Number of faces shared with processor 568 = 420
    Number of faces shared with processor 56 = 2478
    Number of faces shared with processor 569 = 10
    Number of faces shared with processor 57 = 59
    Number of faces shared with processor 599 = 145
    Number of faces shared with processor 87 = 434
    Number of faces shared with processor 600 = 1230
    Number of faces shared with processor 601 = 64
    Number of faces shared with processor 89 = 1040
    Number of faces shared with processor 120 = 2273
    Number of faces shared with processor 632 = 1473
    Number of processor patches = 12
    Number of processor faces = 10458
    Number of boundary faces = 1674

Processor 89
    Number of cells = 59033
    Number of points = 64595
    Number of faces shared with processor 569 = 246
    Number of faces shared with processor 57 = 2419
    Number of faces shared with processor 58 = 1288
    Number of faces shared with processor 570 = 142
    Number of faces shared with processor 88 = 1040
    Number of faces shared with processor 601 = 995
    Number of faces shared with processor 120 = 306
    Number of faces shared with processor 632 = 135
    Number of faces shared with processor 121 = 2969
    Number of processor patches = 9
    Number of processor faces = 9540
    Number of boundary faces = 902

Processor 90
    Number of cells = 59033
    Number of points = 69928
    Number of faces shared with processor 665 = 493
    Number of faces shared with processor 153 = 646
    Number of faces shared with processor 155 = 749
    Number of faces shared with processor 697 = 296
    Number of faces shared with processor 185 = 358
    Number of faces shared with processor 58 = 1706
    Number of faces shared with processor 570 = 324
    Number of faces shared with processor 602 = 1664
    Number of faces shared with processor 633 = 56
    Number of faces shared with processor 121 = 836
    Number of faces shared with processor 122 = 1736
    Number of faces shared with processor 634 = 526
    Number of faces shared with processor 123 = 433
    Number of faces shared with processor 635 = 98
    Number of processor patches = 14
    Number of processor faces = 9921
    Number of boundary faces = 2171

Processor 91
    Number of cells = 59033
    Number of points = 64863
    Number of faces shared with processor 570 = 21
    Number of faces shared with processor 58 = 1218
    Number of faces shared with processor 59 = 3212
    Number of faces shared with processor 603 = 1184
    Number of faces shared with processor 92 = 300
    Number of faces shared with processor 123 = 3308
    Number of processor patches = 6
    Number of processor faces = 9243
    Number of boundary faces = 1195

Processor 92
    Number of cells = 59033
    Number of points = 65338
    Number of faces shared with processor 571 = 15
    Number of faces shared with processor 59 = 90
    Number of faces shared with processor 572 = 216
    Number of faces shared with processor 60 = 3688
    Number of faces shared with processor 61 = 102
    Number of faces shared with processor 603 = 50
    Number of faces shared with processor 91 = 300
    Number of faces shared with processor 604 = 1761
    Number of faces shared with processor 93 = 408
    Number of faces shared with processor 123 = 93
    Number of faces shared with processor 635 = 12
    Number of faces shared with processor 124 = 3675
    Number of faces shared with processor 636 = 188
    Number of processor patches = 13
    Number of processor faces = 10598
    Number of boundary faces = 1686

Processor 93
    Number of cells = 59033
    Number of points = 65435
    Number of faces shared with processor 158 = 54
    Number of faces shared with processor 670 = 243
    Number of faces shared with processor 61 = 3956
    Number of faces shared with processor 92 = 408
    Number of faces shared with processor 605 = 1800
    Number of faces shared with processor 124 = 118
    Number of faces shared with processor 636 = 3
    Number of faces shared with processor 637 = 3
    Number of faces shared with processor 125 = 3945
    Number of faces shared with processor 126 = 36
    Number of faces shared with processor 638 = 162
    Number of processor patches = 11
    Number of processor faces = 10728
    Number of boundary faces = 1742

Processor 94
    Number of cells = 59033
    Number of points = 79702
    Number of faces shared with processor 29 = 148
    Number of faces shared with processor 159 = 51
    Number of faces shared with processor 574 = 282
    Number of faces shared with processor 62 = 1277
    Number of faces shared with processor 606 = 18461
    Number of faces shared with processor 126 = 1631
    Number of faces shared with processor 127 = 60
    Number of processor patches = 7
    Number of processor faces = 21910
    Number of boundary faces = 18352

Processor 95
    Number of cells = 59033
    Number of points = 86494
    Number of faces shared with processor 574 = 31
    Number of faces shared with processor 62 = 62
    Number of faces shared with processor 575 = 128
    Number of faces shared with processor 63 = 1743
    Number of faces shared with processor 607 = 24758
    Number of faces shared with processor 639 = 52
    Number of faces shared with processor 127 = 1883
    Number of processor patches = 7
    Number of processor faces = 28657
    Number of boundary faces = 24581

Processor 96
    Number of cells = 59033
    Number of points = 71077
    Number of faces shared with processor 128 = 3323
    Number of faces shared with processor 1185 = 102
    Number of faces shared with processor 673 = 218
    Number of faces shared with processor 161 = 224
    Number of faces shared with processor 64 = 2958
    Number of faces shared with processor 1217 = 84
    Number of faces shared with processor 705 = 55
    Number of faces shared with processor 193 = 112
    Number of faces shared with processor 608 = 1029
    Number of processor patches = 9
    Number of processor faces = 8105
    Number of boundary faces = 5688

Processor 97
    Number of cells = 59033
    Number of points = 71480
    Number of faces shared with processor 129 = 1870
    Number of faces shared with processor 641 = 809
    Number of faces shared with processor 642 = 388
    Number of faces shared with processor 130 = 521
    Number of faces shared with processor 32 = 42
    Number of faces shared with processor 544 = 760
    Number of faces shared with processor 674 = 14
    Number of faces shared with processor 162 = 108
    Number of faces shared with processor 65 = 3255
    Number of faces shared with processor 609 = 1089
    Number of faces shared with processor 610 = 74
    Number of faces shared with processor 98 = 45
    Number of processor patches = 12
    Number of processor faces = 8975
    Number of boundary faces = 5346

Processor 98
    Number of cells = 59033
    Number of points = 72192
    Number of faces shared with processor 130 = 2707
    Number of faces shared with processor 131 = 65
    Number of faces shared with processor 643 = 77
    Number of faces shared with processor 65 = 462
    Number of faces shared with processor 578 = 68
    Number of faces shared with processor 66 = 3538
    Number of faces shared with processor 67 = 24
    Number of faces shared with processor 97 = 45
    Number of faces shared with processor 610 = 610
    Number of faces shared with processor 99 = 311
    Number of faces shared with processor 611 = 207
    Number of processor patches = 11
    Number of processor faces = 8114
    Number of boundary faces = 6877

Processor 99
    Number of cells = 59033
    Number of points = 72371
    Number of faces shared with processor 131 = 2438
    Number of faces shared with processor 643 = 656
    Number of faces shared with processor 67 = 2428
    Number of faces shared with processor 68 = 178
    Number of faces shared with processor 580 = 93
    Number of faces shared with processor 98 = 311
    Number of faces shared with processor 611 = 1139
    Number of faces shared with processor 612 = 246
    Number of faces shared with processor 100 = 717
    Number of processor patches = 9
    Number of processor faces = 8206
    Number of boundary faces = 8522

Processor 100
    Number of cells = 59033
    Number of points = 69528
    Number of faces shared with processor 131 = 558
    Number of faces shared with processor 132 = 622
    Number of faces shared with processor 644 = 865
    Number of faces shared with processor 133 = 555
    Number of faces shared with processor 68 = 936
    Number of faces shared with processor 580 = 192
    Number of faces shared with processor 99 = 717
    Number of faces shared with processor 612 = 592
    Number of faces shared with processor 101 = 887
    Number of processor patches = 9
    Number of processor faces = 5924
    Number of boundary faces = 10502

Processor 101
    Number of cells = 59033
    Number of points = 72925
    Number of faces shared with processor 645 = 402
    Number of faces shared with processor 133 = 2676
    Number of faces shared with processor 68 = 199
    Number of faces shared with processor 580 = 127
    Number of faces shared with processor 69 = 2346
    Number of faces shared with processor 100 = 887
    Number of faces shared with processor 612 = 398
    Number of faces shared with processor 613 = 1223
    Number of faces shared with processor 102 = 445
    Number of processor patches = 9
    Number of processor faces = 8703
    Number of boundary faces = 7623

Processor 102
    Number of cells = 59033
    Number of points = 72177
    Number of faces shared with processor 645 = 19
    Number of faces shared with processor 133 = 56
    Number of faces shared with processor 134 = 3221
    Number of faces shared with processor 69 = 41
    Number of faces shared with processor 582 = 163
    Number of faces shared with processor 70 = 3584
    Number of faces shared with processor 583 = 101
    Number of faces shared with processor 71 = 282
    Number of faces shared with processor 613 = 71
    Number of faces shared with processor 101 = 445
    Number of faces shared with processor 614 = 475
    Number of processor patches = 11
    Number of processor faces = 8458
    Number of boundary faces = 6449

Processor 103
    Number of cells = 59033
    Number of points = 70804
    Number of faces shared with processor 134 = 24
    Number of faces shared with processor 647 = 366
    Number of faces shared with processor 135 = 1202
    Number of faces shared with processor 166 = 244
    Number of faces shared with processor 198 = 289
    Number of faces shared with processor 71 = 1263
    Number of faces shared with processor 72 = 93
    Number of faces shared with processor 615 = 6587
    Number of faces shared with processor 616 = 363
    Number of faces shared with processor 104 = 1365
    Number of processor patches = 10
    Number of processor faces = 11796
    Number of boundary faces = 1319

Processor 104
    Number of cells = 59033
    Number of points = 74187
    Number of faces shared with processor 647 = 138
    Number of faces shared with processor 135 = 638
    Number of faces shared with processor 136 = 1022
    Number of faces shared with processor 137 = 1101
    Number of faces shared with processor 169 = 4
    Number of faces shared with processor 72 = 988
    Number of faces shared with processor 103 = 1365
    Number of faces shared with processor 616 = 11922
    Number of processor patches = 8
    Number of processor faces = 17178
    Number of boundary faces = 460

Processor 105
    Number of cells = 59033
    Number of points = 72317
    Number of faces shared with processor 649 = 1264
    Number of faces shared with processor 137 = 1327
    Number of faces shared with processor 650 = 65
    Number of faces shared with processor 138 = 122
    Number of faces shared with processor 584 = 184
    Number of faces shared with processor 72 = 684
    Number of faces shared with processor 73 = 2652
    Number of faces shared with processor 617 = 6360
    Number of faces shared with processor 106 = 624
    Number of processor patches = 9
    Number of processor faces = 13282
    Number of boundary faces = 2045

Processor 106
    Number of cells = 59033
    Number of points = 70857
    Number of faces shared with processor 650 = 90
    Number of faces shared with processor 138 = 566
    Number of faces shared with processor 73 = 354
    Number of faces shared with processor 74 = 1534
    Number of faces shared with processor 75 = 205
    Number of faces shared with processor 617 = 23
    Number of faces shared with processor 105 = 624
    Number of faces shared with processor 618 = 5723
    Number of faces shared with processor 107 = 733
    Number of processor patches = 9
    Number of processor faces = 9852
    Number of boundary faces = 2866

Processor 107
    Number of cells = 59033
    Number of points = 72783
    Number of faces shared with processor 650 = 9
    Number of faces shared with processor 138 = 22
    Number of faces shared with processor 651 = 237
    Number of faces shared with processor 139 = 1106
    Number of faces shared with processor 652 = 19
    Number of faces shared with processor 140 = 366
    Number of faces shared with processor 75 = 2881
    Number of faces shared with processor 106 = 733
    Number of faces shared with processor 618 = 69
    Number of faces shared with processor 619 = 7285
    Number of faces shared with processor 620 = 18
    Number of faces shared with processor 108 = 395
    Number of processor patches = 12
    Number of processor faces = 13140
    Number of boundary faces = 2462

Processor 108
    Number of cells = 59033
    Number of points = 70167
    Number of faces shared with processor 140 = 2717
    Number of faces shared with processor 75 = 572
    Number of faces shared with processor 76 = 1428
    Number of faces shared with processor 77 = 34
    Number of faces shared with processor 107 = 395
    Number of faces shared with processor 620 = 4864
    Number of faces shared with processor 621 = 3
    Number of faces shared with processor 109 = 975
    Number of processor patches = 8
    Number of processor faces = 10988
    Number of boundary faces = 2779

Processor 109
    Number of cells = 59033
    Number of points = 70331
    Number of faces shared with processor 652 = 3
    Number of faces shared with processor 140 = 21
    Number of faces shared with processor 141 = 2390
    Number of faces shared with processor 77 = 1463
    Number of faces shared with processor 78 = 674
    Number of faces shared with processor 108 = 975
    Number of faces shared with processor 620 = 19
    Number of faces shared with processor 621 = 6022
    Number of faces shared with processor 110 = 214
    Number of processor patches = 9
    Number of processor faces = 11781
    Number of boundary faces = 2223

Processor 110
    Number of cells = 59033
    Number of points = 73282
    Number of faces shared with processor 653 = 109
    Number of faces shared with processor 141 = 430
    Number of faces shared with processor 654 = 548
    Number of faces shared with processor 142 = 1856
    Number of faces shared with processor 655 = 1
    Number of faces shared with processor 143 = 14
    Number of faces shared with processor 78 = 3599
    Number of faces shared with processor 621 = 96
    Number of faces shared with processor 109 = 214
    Number of faces shared with processor 622 = 4993
    Number of faces shared with processor 623 = 137
    Number of faces shared with processor 111 = 746
    Number of processor patches = 12
    Number of processor faces = 12743
    Number of boundary faces = 3284

Processor 111
    Number of cells = 59033
    Number of points = 71513
    Number of faces shared with processor 655 = 1
    Number of faces shared with processor 143 = 1115
    Number of faces shared with processor 144 = 444
    Number of faces shared with processor 78 = 430
    Number of faces shared with processor 79 = 1786
    Number of faces shared with processor 110 = 746
    Number of faces shared with processor 623 = 7888
    Number of faces shared with processor 112 = 533
    Number of processor patches = 8
    Number of processor faces = 12943
    Number of boundary faces = 903

Processor 112
    Number of cells = 59033
    Number of points = 69834
    Number of faces shared with processor 144 = 2615
    Number of faces shared with processor 79 = 331
    Number of faces shared with processor 80 = 1543
    Number of faces shared with processor 81 = 521
    Number of faces shared with processor 623 = 116
    Number of faces shared with processor 111 = 533
    Number of faces shared with processor 624 = 4702
    Number of faces shared with processor 113 = 412
    Number of processor patches = 8
    Number of processor faces = 10773
    Number of boundary faces = 2772

Processor 113
    Number of cells = 59033
    Number of points = 71212
    Number of faces shared with processor 656 = 197
    Number of faces shared with processor 144 = 205
    Number of faces shared with processor 145 = 2324
    Number of faces shared with processor 81 = 2408
    Number of faces shared with processor 82 = 218
    Number of faces shared with processor 624 = 436
    Number of faces shared with processor 112 = 412
    Number of faces shared with processor 625 = 852
    Number of faces shared with processor 114 = 814
    Number of processor patches = 9
    Number of processor faces = 7866
    Number of boundary faces = 5478

Processor 114
    Number of cells = 59033
    Number of points = 72123
    Number of faces shared with processor 145 = 22
    Number of faces shared with processor 146 = 2058
    Number of faces shared with processor 147 = 246
    Number of faces shared with processor 659 = 460
    Number of faces shared with processor 82 = 2485
    Number of faces shared with processor 113 = 814
    Number of faces shared with processor 626 = 824
    Number of faces shared with processor 115 = 248
    Number of faces shared with processor 627 = 623
    Number of processor patches = 9
    Number of processor faces = 7780
    Number of boundary faces = 6683

Processor 115
    Number of cells = 59033
    Number of points = 70749
    Number of faces shared with processor 147 = 1524
    Number of faces shared with processor 659 = 386
    Number of faces shared with processor 82 = 155
    Number of faces shared with processor 83 = 1408
    Number of faces shared with processor 114 = 248
    Number of faces shared with processor 627 = 1154
    Number of faces shared with processor 628 = 29
    Number of faces shared with processor 116 = 1176
    Number of processor patches = 8
    Number of processor faces = 6080
    Number of boundary faces = 9396

Processor 116
    Number of cells = 59033
    Number of points = 69681
    Number of faces shared with processor 147 = 32
    Number of faces shared with processor 659 = 3
    Number of faces shared with processor 148 = 489
    Number of faces shared with processor 660 = 966
    Number of faces shared with processor 83 = 42
    Number of faces shared with processor 84 = 765
    Number of faces shared with processor 596 = 541
    Number of faces shared with processor 85 = 65
    Number of faces shared with processor 115 = 1176
    Number of faces shared with processor 628 = 785
    Number of faces shared with processor 117 = 1412
    Number of processor patches = 11
    Number of processor faces = 6276
    Number of boundary faces = 9958

Processor 117
    Number of cells = 59033
    Number of points = 72755
    Number of faces shared with processor 148 = 116
    Number of faces shared with processor 660 = 87
    Number of faces shared with processor 149 = 1971
    Number of faces shared with processor 661 = 611
    Number of faces shared with processor 85 = 1585
    Number of faces shared with processor 86 = 212
    Number of faces shared with processor 628 = 305
    Number of faces shared with processor 116 = 1412
    Number of faces shared with processor 629 = 997
    Number of faces shared with processor 118 = 301
    Number of processor patches = 10
    Number of processor faces = 7597
    Number of boundary faces = 7426

Processor 118
    Number of cells = 59033
    Number of points = 72942
    Number of faces shared with processor 661 = 478
[...]
Processor 1404: field transfer
Processor 1405: field transfer
Processor 1406: field transfer
Processor 1407: field transfer
Processor 1408: field transfer
Processor 1409: field transfer
Processor 1410: field transfer
Processor 1411: field transfer
Processor 1412: field transfer
Processor 1413: field transfer
Processor 1414: field transfer
Processor 1415: field transfer
Processor 1416: field transfer
Processor 1417: field transfer
Processor 1418: field transfer
Processor 1419: field transfer
Processor 1420: field transfer
Processor 1421: field transfer
Processor 1422: field transfer
Processor 1423: field transfer
Processor 1424: field transfer
Processor 1425: field transfer
Processor 1426: field transfer
Processor 1427: field transfer
Processor 1428: field transfer
Processor 1429: field transfer
Processor 1430: field transfer
Processor 1431: field transfer
Processor 1432: field transfer
Processor 1433: field transfer
Processor 1434: field transfer
Processor 1435: field transfer
Processor 1436: field transfer
Processor 1437: field transfer
Processor 1438: field transfer
Processor 1439: field transfer
Processor 1440: field transfer
Processor 1441: field transfer
Processor 1442: field transfer
Processor 1443: field transfer
Processor 1444: field transfer
Processor 1445: field transfer
Processor 1446: field transfer
Processor 1447: field transfer
Processor 1448: field transfer
Processor 1449: field transfer
Processor 1450: field transfer
Processor 1451: field transfer
Processor 1452: field transfer
Processor 1453: field transfer
Processor 1454: field transfer
Processor 1455: field transfer
Processor 1456: field transfer
Processor 1457: field transfer
Processor 1458: field transfer
Processor 1459: field transfer
Processor 1460: field transfer
Processor 1461: field transfer
Processor 1462: field transfer
Processor 1463: field transfer
Processor 1464: field transfer
Processor 1465: field transfer
Processor 1466: field transfer
Processor 1467: field transfer
Processor 1468: field transfer
Processor 1469: field transfer
Processor 1470: field transfer
Processor 1471: field transfer
Processor 1472: field transfer
Processor 1473: field transfer
Processor 1474: field transfer
Processor 1475: field transfer
Processor 1476: field transfer
Processor 1477: field transfer
Processor 1478: field transfer
Processor 1479: field transfer
Processor 1480: field transfer
Processor 1481: field transfer
Processor 1482: field transfer
Processor 1483: field transfer
Processor 1484: field transfer
Processor 1485: field transfer
Processor 1486: field transfer
Processor 1487: field transfer
Processor 1488: field transfer
Processor 1489: field transfer
Processor 1490: field transfer
Processor 1491: field transfer
Processor 1492: field transfer
Processor 1493: field transfer
Processor 1494: field transfer
Processor 1495: field transfer
Processor 1496: field transfer
Processor 1497: field transfer
Processor 1498: field transfer
Processor 1499: field transfer
Processor 1500: field transfer
Processor 1501: field transfer
Processor 1502: field transfer
Processor 1503: field transfer
Processor 1504: field transfer
Processor 1505: field transfer
Processor 1506: field transfer
Processor 1507: field transfer
Processor 1508: field transfer
Processor 1509: field transfer
Processor 1510: field transfer
Processor 1511: field transfer
Processor 1512: field transfer
Processor 1513: field transfer
Processor 1514: field transfer
Processor 1515: field transfer
Processor 1516: field transfer
Processor 1517: field transfer
Processor 1518: field transfer
Processor 1519: field transfer
Processor 1520: field transfer
Processor 1521: field transfer
Processor 1522: field transfer
Processor 1523: field transfer
Processor 1524: field transfer
Processor 1525: field transfer
Processor 1526: field transfer
Processor 1527: field transfer
Processor 1528: field transfer
Processor 1529: field transfer
Processor 1530: field transfer
Processor 1531: field transfer
Processor 1532: field transfer
Processor 1533: field transfer
Processor 1534: field transfer
Processor 1535: field transfer
Processor 1536: field transfer
Processor 1537: field transfer
Processor 1538: field transfer
Processor 1539: field transfer
Processor 1540: field transfer
Processor 1541: field transfer
Processor 1542: field transfer
Processor 1543: field transfer
Processor 1544: field transfer
Processor 1545: field transfer
Processor 1546: field transfer
Processor 1547: field transfer
Processor 1548: field transfer
Processor 1549: field transfer
Processor 1550: field transfer
Processor 1551: field transfer
Processor 1552: field transfer
Processor 1553: field transfer
Processor 1554: field transfer
Processor 1555: field transfer
Processor 1556: field transfer
Processor 1557: field transfer
Processor 1558: field transfer
Processor 1559: field transfer
Processor 1560: field transfer
Processor 1561: field transfer
Processor 1562: field transfer
Processor 1563: field transfer
Processor 1564: field transfer
Processor 1565: field transfer
Processor 1566: field transfer
Processor 1567: field transfer
Processor 1568: field transfer
Processor 1569: field transfer
Processor 1570: field transfer
Processor 1571: field transfer
Processor 1572: field transfer
Processor 1573: field transfer
Processor 1574: field transfer
Processor 1575: field transfer
Processor 1576: field transfer
Processor 1577: field transfer
Processor 1578: field transfer
Processor 1579: field transfer
Processor 1580: field transfer
Processor 1581: field transfer
Processor 1582: field transfer
Processor 1583: field transfer
Processor 1584: field transfer
Processor 1585: field transfer
Processor 1586: field transfer
Processor 1587: field transfer
Processor 1588: field transfer
Processor 1589: field transfer
Processor 1590: field transfer
Processor 1591: field transfer
Processor 1592: field transfer
Processor 1593: field transfer
Processor 1594: field transfer
Processor 1595: field transfer
Processor 1596: field transfer
Processor 1597: field transfer
Processor 1598: field transfer
Processor 1599: field transfer
Processor 1600: field transfer
Processor 1601: field transfer
Processor 1602: field transfer
Processor 1603: field transfer
Processor 1604: field transfer
Processor 1605: field transfer
Processor 1606: field transfer
Processor 1607: field transfer
Processor 1608: field transfer
Processor 1609: field transfer
Processor 1610: field transfer
Processor 1611: field transfer
Processor 1612: field transfer
Processor 1613: field transfer
Processor 1614: field transfer
Processor 1615: field transfer
Processor 1616: field transfer
Processor 1617: field transfer
Processor 1618: field transfer
Processor 1619: field transfer
Processor 1620: field transfer
Processor 1621: field transfer
Processor 1622: field transfer
Processor 1623: field transfer
Processor 1624: field transfer
Processor 1625: field transfer
Processor 1626: field transfer
Processor 1627: field transfer
Processor 1628: field transfer
Processor 1629: field transfer
Processor 1630: field transfer
Processor 1631: field transfer
Processor 1632: field transfer
Processor 1633: field transfer
Processor 1634: field transfer
Processor 1635: field transfer
Processor 1636: field transfer
Processor 1637: field transfer
Processor 1638: field transfer
Processor 1639: field transfer
Processor 1640: field transfer
Processor 1641: field transfer
Processor 1642: field transfer
Processor 1643: field transfer
Processor 1644: field transfer
Processor 1645: field transfer
Processor 1646: field transfer
Processor 1647: field transfer
Processor 1648: field transfer
Processor 1649: field transfer
Processor 1650: field transfer
Processor 1651: field transfer
Processor 1652: field transfer
Processor 1653: field transfer
Processor 1654: field transfer
Processor 1655: field transfer
Processor 1656: field transfer
Processor 1657: field transfer
Processor 1658: field transfer
Processor 1659: field transfer
Processor 1660: field transfer
Processor 1661: field transfer
Processor 1662: field transfer
Processor 1663: field transfer
Processor 1664: field transfer
Processor 1665: field transfer
Processor 1666: field transfer
Processor 1667: field transfer
Processor 1668: field transfer
Processor 1669: field transfer
Processor 1670: field transfer
Processor 1671: field transfer
Processor 1672: field transfer
Processor 1673: field transfer
Processor 1674: field transfer
Processor 1675: field transfer
Processor 1676: field transfer
Processor 1677: field transfer
Processor 1678: field transfer
Processor 1679: field transfer
Processor 1680: field transfer
Processor 1681: field transfer
Processor 1682: field transfer
Processor 1683: field transfer
Processor 1684: field transfer
Processor 1685: field transfer
Processor 1686: field transfer
Processor 1687: field transfer
Processor 1688: field transfer
Processor 1689: field transfer
Processor 1690: field transfer
Processor 1691: field transfer
Processor 1692: field transfer
Processor 1693: field transfer
Processor 1694: field transfer
Processor 1695: field transfer
Processor 1696: field transfer
Processor 1697: field transfer
Processor 1698: field transfer
Processor 1699: field transfer
Processor 1700: field transfer
Processor 1701: field transfer
Processor 1702: field transfer
Processor 1703: field transfer
Processor 1704: field transfer
Processor 1705: field transfer
Processor 1706: field transfer
Processor 1707: field transfer
Processor 1708: field transfer
Processor 1709: field transfer
Processor 1710: field transfer
Processor 1711: field transfer
Processor 1712: field transfer
Processor 1713: field transfer
Processor 1714: field transfer
Processor 1715: field transfer
Processor 1716: field transfer
Processor 1717: field transfer
Processor 1718: field transfer
Processor 1719: field transfer
Processor 1720: field transfer
Processor 1721: field transfer
Processor 1722: field transfer
Processor 1723: field transfer
Processor 1724: field transfer
Processor 1725: field transfer
Processor 1726: field transfer
Processor 1727: field transfer
Processor 1728: field transfer
Processor 1729: field transfer
Processor 1730: field transfer
Processor 1731: field transfer
Processor 1732: field transfer
Processor 1733: field transfer
Processor 1734: field transfer
Processor 1735: field transfer
Processor 1736: field transfer
Processor 1737: field transfer
Processor 1738: field transfer
Processor 1739: field transfer
Processor 1740: field transfer
Processor 1741: field transfer
Processor 1742: field transfer
Processor 1743: field transfer
Processor 1744: field transfer
Processor 1745: field transfer
Processor 1746: field transfer
Processor 1747: field transfer
Processor 1748: field transfer
Processor 1749: field transfer
Processor 1750: field transfer
Processor 1751: field transfer
Processor 1752: field transfer
Processor 1753: field transfer
Processor 1754: field transfer
Processor 1755: field transfer
Processor 1756: field transfer
Processor 1757: field transfer
Processor 1758: field transfer
Processor 1759: field transfer
Processor 1760: field transfer
Processor 1761: field transfer
Processor 1762: field transfer
Processor 1763: field transfer
Processor 1764: field transfer
Processor 1765: field transfer
Processor 1766: field transfer
Processor 1767: field transfer
Processor 1768: field transfer
Processor 1769: field transfer
Processor 1770: field transfer
Processor 1771: field transfer
Processor 1772: field transfer
Processor 1773: field transfer
Processor 1774: field transfer
Processor 1775: field transfer
Processor 1776: field transfer
Processor 1777: field transfer
Processor 1778: field transfer
Processor 1779: field transfer
Processor 1780: field transfer
Processor 1781: field transfer
Processor 1782: field transfer
Processor 1783: field transfer
Processor 1784: field transfer
Processor 1785: field transfer
Processor 1786: field transfer
Processor 1787: field transfer
Processor 1788: field transfer
Processor 1789: field transfer
Processor 1790: field transfer
Processor 1791: field transfer
Processor 1792: field transfer
Processor 1793: field transfer
Processor 1794: field transfer
Processor 1795: field transfer
Processor 1796: field transfer
Processor 1797: field transfer
Processor 1798: field transfer
Processor 1799: field transfer
Processor 1800: field transfer
Processor 1801: field transfer
Processor 1802: field transfer
Processor 1803: field transfer
Processor 1804: field transfer
Processor 1805: field transfer
Processor 1806: field transfer
Processor 1807: field transfer
Processor 1808: field transfer
Processor 1809: field transfer
Processor 1810: field transfer
Processor 1811: field transfer
Processor 1812: field transfer
Processor 1813: field transfer
Processor 1814: field transfer
Processor 1815: field transfer
Processor 1816: field transfer
Processor 1817: field transfer
Processor 1818: field transfer
Processor 1819: field transfer
Processor 1820: field transfer
Processor 1821: field transfer
Processor 1822: field transfer
Processor 1823: field transfer
Processor 1824: field transfer
Processor 1825: field transfer
Processor 1826: field transfer
Processor 1827: field transfer
Processor 1828: field transfer
Processor 1829: field transfer
Processor 1830: field transfer
Processor 1831: field transfer
Processor 1832: field transfer
Processor 1833: field transfer
Processor 1834: field transfer
Processor 1835: field transfer
Processor 1836: field transfer
Processor 1837: field transfer
Processor 1838: field transfer
Processor 1839: field transfer
Processor 1840: field transfer
Processor 1841: field transfer
Processor 1842: field transfer
Processor 1843: field transfer
Processor 1844: field transfer
Processor 1845: field transfer
Processor 1846: field transfer
Processor 1847: field transfer
Processor 1848: field transfer
Processor 1849: field transfer
Processor 1850: field transfer
Processor 1851: field transfer
Processor 1852: field transfer
Processor 1853: field transfer
Processor 1854: field transfer
Processor 1855: field transfer
Processor 1856: field transfer
Processor 1857: field transfer
Processor 1858: field transfer
Processor 1859: field transfer
Processor 1860: field transfer
Processor 1861: field transfer
Processor 1862: field transfer
Processor 1863: field transfer
Processor 1864: field transfer
Processor 1865: field transfer
Processor 1866: field transfer
Processor 1867: field transfer
Processor 1868: field transfer
Processor 1869: field transfer
Processor 1870: field transfer
Processor 1871: field transfer
Processor 1872: field transfer
Processor 1873: field transfer
Processor 1874: field transfer
Processor 1875: field transfer
Processor 1876: field transfer
Processor 1877: field transfer
Processor 1878: field transfer
Processor 1879: field transfer
Processor 1880: field transfer
Processor 1881: field transfer
Processor 1882: field transfer
Processor 1883: field transfer
Processor 1884: field transfer
Processor 1885: field transfer
Processor 1886: field transfer
Processor 1887: field transfer
Processor 1888: field transfer
Processor 1889: field transfer
Processor 1890: field transfer
Processor 1891: field transfer
Processor 1892: field transfer
Processor 1893: field transfer
Processor 1894: field transfer
Processor 1895: field transfer
Processor 1896: field transfer
Processor 1897: field transfer
Processor 1898: field transfer
Processor 1899: field transfer
Processor 1900: field transfer
Processor 1901: field transfer
Processor 1902: field transfer
Processor 1903: field transfer
Processor 1904: field transfer
Processor 1905: field transfer
Processor 1906: field transfer
Processor 1907: field transfer
Processor 1908: field transfer
Processor 1909: field transfer
Processor 1910: field transfer
Processor 1911: field transfer
Processor 1912: field transfer
Processor 1913: field transfer
Processor 1914: field transfer
Processor 1915: field transfer
Processor 1916: field transfer
Processor 1917: field transfer
Processor 1918: field transfer
Processor 1919: field transfer
Processor 1920: field transfer
Processor 1921: field transfer
Processor 1922: field transfer
Processor 1923: field transfer
Processor 1924: field transfer
Processor 1925: field transfer
Processor 1926: field transfer
Processor 1927: field transfer
Processor 1928: field transfer
Processor 1929: field transfer
Processor 1930: field transfer
Processor 1931: field transfer
Processor 1932: field transfer
Processor 1933: field transfer
Processor 1934: field transfer
Processor 1935: field transfer
Processor 1936: field transfer
Processor 1937: field transfer
Processor 1938: field transfer
Processor 1939: field transfer
Processor 1940: field transfer
Processor 1941: field transfer
Processor 1942: field transfer
Processor 1943: field transfer
Processor 1944: field transfer
Processor 1945: field transfer
Processor 1946: field transfer
Processor 1947: field transfer
Processor 1948: field transfer
Processor 1949: field transfer
Processor 1950: field transfer
Processor 1951: field transfer
Processor 1952: field transfer
Processor 1953: field transfer
Processor 1954: field transfer
Processor 1955: field transfer
Processor 1956: field transfer
Processor 1957: field transfer
Processor 1958: field transfer
Processor 1959: field transfer
Processor 1960: field transfer
Processor 1961: field transfer
Processor 1962: field transfer
Processor 1963: field transfer
Processor 1964: field transfer
Processor 1965: field transfer
Processor 1966: field transfer
Processor 1967: field transfer
Processor 1968: field transfer
Processor 1969: field transfer
Processor 1970: field transfer
Processor 1971: field transfer
Processor 1972: field transfer
Processor 1973: field transfer
Processor 1974: field transfer
Processor 1975: field transfer
Processor 1976: field transfer
Processor 1977: field transfer
Processor 1978: field transfer
Processor 1979: field transfer
Processor 1980: field transfer
Processor 1981: field transfer
Processor 1982: field transfer
Processor 1983: field transfer
Processor 1984: field transfer
Processor 1985: field transfer
Processor 1986: field transfer
Processor 1987: field transfer
Processor 1988: field transfer
Processor 1989: field transfer
Processor 1990: field transfer
Processor 1991: field transfer
Processor 1992: field transfer
Processor 1993: field transfer
Processor 1994: field transfer
Processor 1995: field transfer
Processor 1996: field transfer
Processor 1997: field transfer
Processor 1998: field transfer
Processor 1999: field transfer
Processor 2000: field transfer
Processor 2001: field transfer
Processor 2002: field transfer
Processor 2003: field transfer
Processor 2004: field transfer
Processor 2005: field transfer
Processor 2006: field transfer
Processor 2007: field transfer
Processor 2008: field transfer
Processor 2009: field transfer
Processor 2010: field transfer
Processor 2011: field transfer
Processor 2012: field transfer
Processor 2013: field transfer
Processor 2014: field transfer
Processor 2015: field transfer
Processor 2016: field transfer
Processor 2017: field transfer
Processor 2018: field transfer
Processor 2019: field transfer
Processor 2020: field transfer
Processor 2021: field transfer
Processor 2022: field transfer
Processor 2023: field transfer
Processor 2024: field transfer
Processor 2025: field transfer
Processor 2026: field transfer
Processor 2027: field transfer
Processor 2028: field transfer
Processor 2029: field transfer
Processor 2030: field transfer
Processor 2031: field transfer
Processor 2032: field transfer
Processor 2033: field transfer
Processor 2034: field transfer
Processor 2035: field transfer
Processor 2036: field transfer
Processor 2037: field transfer
Processor 2038: field transfer
Processor 2039: field transfer
Processor 2040: field transfer
Processor 2041: field transfer
Processor 2042: field transfer
Processor 2043: field transfer
Processor 2044: field transfer
Processor 2045: field transfer
Processor 2046: field transfer
Processor 2047: field transfer

End

